<?xml version="1.0" encoding="UTF-8"?>
<routes xmlns:xsi="http://www.w3.org/2001/XMLSchema-instance" xsi:noNamespaceSchemaLocation="http://sumo.dlr.de/xsd/routes_file.xsd">
	<vehicle id="0" depart="41"><route edges="EdgeE3 Edge32 Edge21 Edge1N1 "/></vehicle>
	<vehicle id="1" depart="49"><route edges="EdgeN11 Edge12 Edge2S2 "/></vehicle>
	<vehicle id="2" depart="57"><route edges="EdgeS11 Edge1N1"/></vehicle>
	<vehicle id="3" depart="64"><route edges="EdgeE3 Edge3N3"/></vehicle>
	<vehicle id="4" depart="68"><route edges="EdgeW1 Edge1N1"/></vehicle>
	<vehicle id="5" depart="70"><route edges="EdgeW1 Edge12 Edge23 Edge3E "/></vehicle>
	<vehicle id="6" depart="89"><route edges="EdgeW1 Edge1N1"/></vehicle>
	<vehicle id="7" depart="116"><route edges="EdgeE3 Edge32 Edge21 Edge1W "/></vehicle>
	<vehicle id="8" depart="119"><route edges="EdgeE3 Edge32 Edge21 Edge1N1 "/></vehicle>
	<vehicle id="9" depart="184"><route edges="EdgeW1 Edge12 Edge23 Edge3E "/></vehicle>
	<vehicle id="10" depart="224"><route edges="EdgeN11 Edge12 Edge23 Edge3E "/></vehicle>
	<vehicle id="11" depart="225"><route edges="EdgeS11 Edge12 Edge23 Edge3N3 "/></vehicle>
	<vehicle id="12" depart="231"><route edges="EdgeW1 Edge12 Edge23 Edge3E "/></vehicle>
	<vehicle id="13" depart="255"><route edges="EdgeS33 Edge3E"/></vehicle>
	<vehicle id="14" depart="262"><route edges="EdgeN33 Edge3E"/></vehicle>
	<vehicle id="15" depart="283"><route edges="EdgeN33 Edge32 Edge21 Edge1S1 "/></vehicle>
	<vehicle id="16" depart="327"><route edges="EdgeW1 Edge12 Edge23 Edge3S3 "/></vehicle>
	<vehicle id="17" depart="329"><route edges="EdgeN11 Edge12 Edge23 Edge3N3 "/></vehicle>
	<vehicle id="18" depart="359"><route edges="EdgeN11 Edge12 Edge2S2 "/></vehicle>
	<vehicle id="19" depart="378"><route edges="EdgeS22 Edge21 Edge1W "/></vehicle>
	<vehicle id="20" depart="387"><route edges="EdgeN11 Edge12 Edge2S2 "/></vehicle>
	<vehicle id="21" depart="418"><route edges="EdgeN11 Edge12 Edge2S2 "/></vehicle>
	<vehicle id="22" depart="438"><route edges="EdgeN11 Edge12 Edge2N2 "/></vehicle>
	<vehicle id="23" depart="443"><route edges="EdgeS22 Edge21 Edge1W "/></vehicle>
	<vehicle id="24" depart="488"><route edges="EdgeS11 Edge1W"/></vehicle>
	<vehicle id="25" depart="545"><route edges="EdgeS11 Edge1W"/></vehicle>
	<vehicle id="26" depart="558"><route edges="EdgeE3 Edge3N3"/></vehicle>
	<vehicle id="27" depart="562"><route edges="EdgeE3 Edge32 Edge21 Edge1W "/></vehicle>
	<vehicle id="28" depart="575"><route edges="EdgeN11 Edge12 Edge23 Edge3N3 "/></vehicle>
	<vehicle id="29" depart="585"><route edges="EdgeN33 Edge32 Edge2S2 "/></vehicle>
	<vehicle id="30" depart="607"><route edges="EdgeE3 Edge32 Edge21 Edge1W "/></vehicle>
	<vehicle id="31" depart="609"><route edges="EdgeE3 Edge32 Edge21 Edge1W "/></vehicle>
	<vehicle id="32" depart="623"><route edges="EdgeW1 Edge12 Edge23 Edge3E "/></vehicle>
	<vehicle id="33" depart="630"><route edges="EdgeE3 Edge32 Edge21 Edge1W "/></vehicle>
	<vehicle id="34" depart="637"><route edges="EdgeW1 Edge12 Edge2N2 "/></vehicle>
	<vehicle id="35" depart="640"><route edges="EdgeN11 Edge12 Edge23 Edge3S3 "/></vehicle>
	<vehicle id="36" depart="652"><route edges="EdgeN22 Edge21 Edge1N1 "/></vehicle>
	<vehicle id="37" depart="684"><route edges="EdgeE3 Edge32 Edge21 Edge1W "/></vehicle>
	<vehicle id="38" depart="685"><route edges="EdgeW1 Edge12 Edge23 Edge3E "/></vehicle>
	<vehicle id="39" depart="691"><route edges="EdgeN11 Edge12 Edge2N2 "/></vehicle>
	<vehicle id="40" depart="712"><route edges="EdgeN22 Edge21 Edge1W "/></vehicle>
	<vehicle id="41" depart="717"><route edges="EdgeS22 Edge2N2"/></vehicle>
	<vehicle id="42" depart="722"><route edges="EdgeN11 Edge12 Edge2N2 "/></vehicle>
	<vehicle id="43" depart="747"><route edges="EdgeN33 Edge3S3"/></vehicle>
	<vehicle id="44" depart="778"><route edges="EdgeE3 Edge32 Edge21 Edge1W "/></vehicle>
	<vehicle id="45" depart="781"><route edges="EdgeE3 Edge32 Edge21 Edge1W "/></vehicle>
	<vehicle id="46" depart="788"><route edges="EdgeE3 Edge32 Edge21 Edge1W "/></vehicle>
	<vehicle id="47" depart="790"><route edges="EdgeN33 Edge3E"/></vehicle>
	<vehicle id="48" depart="804"><route edges="EdgeS11 Edge12 Edge23 Edge3S3 "/></vehicle>
	<vehicle id="49" depart="830"><route edges="EdgeS22 Edge23 Edge3E "/></vehicle>
	<vehicle id="50" depart="837"><route edges="EdgeN33 Edge3E"/></vehicle>
	<vehicle id="51" depart="839"><route edges="EdgeS33 Edge32 Edge2S2 "/></vehicle>
	<vehicle id="52" depart="851"><route edges="EdgeN22 Edge21 Edge1S1 "/></vehicle>
	<vehicle id="53" depart="883"><route edges="EdgeW1 Edge1N1"/></vehicle>
	<vehicle id="54" depart="922"><route edges="EdgeS22 Edge23 Edge3S3 "/></vehicle>
	<vehicle id="55" depart="930"><route edges="EdgeW1 Edge12 Edge23 Edge3E "/></vehicle>
	<vehicle id="56" depart="947"><route edges="EdgeN22 Edge23 Edge3N3 "/></vehicle>
	<vehicle id="57" depart="973"><route edges="EdgeW1 Edge12 Edge23 Edge3E "/></vehicle>
	<vehicle id="58" depart="983"><route edges="EdgeE3 Edge32 Edge21 Edge1W "/></vehicle>
	<vehicle id="59" depart="985"><route edges="EdgeS11 Edge1W"/></vehicle>
	<vehicle id="60" depart="1009"><route edges="EdgeN33 Edge3S3"/></vehicle>
	<vehicle id="61" depart="1046"><route edges="EdgeN33 Edge32 Edge2S2 "/></vehicle>
	<vehicle id="62" depart="1052"><route edges="EdgeS33 Edge32 Edge21 Edge1W "/></vehicle>
	<vehicle id="63" depart="1069"><route edges="EdgeN22 Edge23 Edge3S3 "/></vehicle>
	<vehicle id="64" depart="1114"><route edges="EdgeN11 Edge12 Edge23 Edge3N3 "/></vehicle>
	<vehicle id="65" depart="1125"><route edges="EdgeW1 Edge12 Edge23 Edge3E "/></vehicle>
	<vehicle id="66" depart="1137"><route edges="EdgeW1 Edge12 Edge23 Edge3E "/></vehicle>
	<vehicle id="67" depart="1168"><route edges="EdgeN33 Edge32 Edge21 Edge1S1 "/></vehicle>
	<vehicle id="68" depart="1168"><route edges="EdgeS33 Edge3E"/></vehicle>
	<vehicle id="69" depart="1202"><route edges="EdgeN22 Edge2S2"/></vehicle>
	<vehicle id="70" depart="1216"><route edges="EdgeN11 Edge1W"/></vehicle>
	<vehicle id="71" depart="1216"><route edges="EdgeS11 Edge1W"/></vehicle>
	<vehicle id="72" depart="1233"><route edges="EdgeN11 Edge12 Edge23 Edge3N3 "/></vehicle>
	<vehicle id="73" depart="1250"><route edges="EdgeE3 Edge32 Edge21 Edge1W "/></vehicle>
	<vehicle id="74" depart="1251"><route edges="EdgeN33 Edge32 Edge2S2 "/></vehicle>
	<vehicle id="75" depart="1263"><route edges="EdgeN22 Edge23 Edge3E "/></vehicle>
	<vehicle id="76" depart="1270"><route edges="EdgeW1 Edge12 Edge23 Edge3S3 "/></vehicle>
	<vehicle id="77" depart="1292"><route edges="EdgeW1 Edge12 Edge2N2 "/></vehicle>
	<vehicle id="78" depart="1296"><route edges="EdgeN22 Edge21 Edge1W "/></vehicle>
	<vehicle id="79" depart="1317"><route edges="EdgeN33 Edge3E"/></vehicle>
	<vehicle id="80" depart="1335"><route edges="EdgeN33 Edge32 Edge21 Edge1N1 "/></vehicle>
	<vehicle id="81" depart="1372"><route edges="EdgeN33 Edge32 Edge21 Edge1S1 "/></vehicle>
	<vehicle id="82" depart="1380"><route edges="EdgeS33 Edge3E"/></vehicle>
	<vehicle id="83" depart="1386"><route edges="EdgeW1 Edge12 Edge23 Edge3E "/></vehicle>
	<vehicle id="84" depart="1390"><route edges="EdgeW1 Edge12 Edge23 Edge3E "/></vehicle>
	<vehicle id="85" depart="1413"><route edges="EdgeS22 Edge23 Edge3S3 "/></vehicle>
	<vehicle id="86" depart="1435"><route edges="EdgeN33 Edge3E"/></vehicle>
	<vehicle id="87" depart="1449"><route edges="EdgeE3 Edge32 Edge2S2 "/></vehicle>
	<vehicle id="88" depart="1450"><route edges="EdgeN33 Edge32 Edge21 Edge1W "/></vehicle>
	<vehicle id="89" depart="1471"><route edges="EdgeN33 Edge32 Edge21 Edge1W "/></vehicle>
	<vehicle id="90" depart="1482"><route edges="EdgeE3 Edge32 Edge21 Edge1S1 "/></vehicle>
	<vehicle id="91" depart="1485"><route edges="EdgeN33 Edge3S3"/></vehicle>
	<vehicle id="92" depart="1488"><route edges="EdgeW1 Edge12 Edge23 Edge3E "/></vehicle>
	<vehicle id="93" depart="1489"><route edges="EdgeN33 Edge3E"/></vehicle>
	<vehicle id="94" depart="1502"><route edges="EdgeN22 Edge23 Edge3E "/></vehicle>
	<vehicle id="95" depart="1507"><route edges="EdgeE3 Edge3N3"/></vehicle>
	<vehicle id="96" depart="1513"><route edges="EdgeS11 Edge12 Edge23 Edge3S3 "/></vehicle>
	<vehicle id="97" depart="1525"><route edges="EdgeN11 Edge1S1"/></vehicle>
	<vehicle id="98" depart="1539"><route edges="EdgeW1 Edge12 Edge2S2 "/></vehicle>
	<vehicle id="99" depart="1543"><route edges="EdgeN11 Edge12 Edge2S2 "/></vehicle>
	<vehicle id="100" depart="1545"><route edges="EdgeS11 Edge12 Edge2S2 "/></vehicle>
	<vehicle id="101" depart="1567"><route edges="EdgeE3 Edge3S3"/></vehicle>
	<vehicle id="102" depart="1568"><route edges="EdgeW1 Edge1S1"/></vehicle>
	<vehicle id="103" depart="1588"><route edges="EdgeS11 Edge1N1"/></vehicle>
	<vehicle id="104" depart="1597"><route edges="EdgeE3 Edge32 Edge21 Edge1W "/></vehicle>
	<vehicle id="105" depart="1615"><route edges="EdgeS11 Edge12 Edge23 Edge3E "/></vehicle>
	<vehicle id="106" depart="1652"><route edges="EdgeN22 Edge21 Edge1W "/></vehicle>
	<vehicle id="107" depart="1659"><route edges="EdgeN11 Edge1S1"/></vehicle>
	<vehicle id="108" depart="1659"><route edges="EdgeN22 Edge23 Edge3N3 "/></vehicle>
	<vehicle id="109" depart="1665"><route edges="EdgeS11 Edge1W"/></vehicle>
	<vehicle id="110" depart="1670"><route edges="EdgeE3 Edge3S3"/></vehicle>
	<vehicle id="111" depart="1679"><route edges="EdgeE3 Edge32 Edge21 Edge1W "/></vehicle>
	<vehicle id="112" depart="1681"><route edges="EdgeS22 Edge21 Edge1W "/></vehicle>
	<vehicle id="113" depart="1681"><route edges="EdgeN11 Edge12 Edge23 Edge3S3 "/></vehicle>
	<vehicle id="114" depart="1684"><route edges="EdgeS22 Edge23 Edge3N3 "/></vehicle>
	<vehicle id="115" depart="1688"><route edges="EdgeE3 Edge3S3"/></vehicle>
	<vehicle id="116" depart="1690"><route edges="EdgeN33 Edge32 Edge2N2 "/></vehicle>
	<vehicle id="117" depart="1696"><route edges="EdgeE3 Edge32 Edge21 Edge1S1 "/></vehicle>
	<vehicle id="118" depart="1696"><route edges="EdgeS11 Edge1W"/></vehicle>
	<vehicle id="119" depart="1698"><route edges="EdgeE3 Edge32 Edge21 Edge1W "/></vehicle>
	<vehicle id="120" depart="1708"><route edges="EdgeE3 Edge32 Edge21 Edge1W "/></vehicle>
	<vehicle id="121" depart="1711"><route edges="EdgeW1 Edge12 Edge23 Edge3N3 "/></vehicle>
	<vehicle id="122" depart="1715"><route edges="EdgeW1 Edge12 Edge23 Edge3E "/></vehicle>
	<vehicle id="123" depart="1725"><route edges="EdgeN33 Edge3E"/></vehicle>
	<vehicle id="124" depart="1731"><route edges="EdgeS11 Edge12 Edge2N2 "/></vehicle>
	<vehicle id="125" depart="1732"><route edges="EdgeE3 Edge32 Edge21 Edge1W "/></vehicle>
	<vehicle id="126" depart="1741"><route edges="EdgeS22 Edge23 Edge3E "/></vehicle>
	<vehicle id="127" depart="1744"><route edges="EdgeW1 Edge12 Edge23 Edge3E "/></vehicle>
	<vehicle id="128" depart="1746"><route edges="EdgeS11 Edge12 Edge2S2 "/></vehicle>
	<vehicle id="129" depart="1750"><route edges="EdgeS33 Edge32 Edge2N2 "/></vehicle>
	<vehicle id="130" depart="1750"><route edges="EdgeS33 Edge32 Edge21 Edge1N1 "/></vehicle>
	<vehicle id="131" depart="1780"><route edges="EdgeS11 Edge1W"/></vehicle>
	<vehicle id="132" depart="1787"><route edges="EdgeS22 Edge23 Edge3S3 "/></vehicle>
	<vehicle id="133" depart="1789"><route edges="EdgeN33 Edge32 Edge2N2 "/></vehicle>
	<vehicle id="134" depart="1794"><route edges="EdgeN33 Edge32 Edge21 Edge1N1 "/></vehicle>
	<vehicle id="135" depart="1799"><route edges="EdgeS11 Edge1N1"/></vehicle>
	<vehicle id="136" depart="1803"><route edges="EdgeW1 Edge12 Edge2N2 "/></vehicle>
	<vehicle id="137" depart="1815"><route edges="EdgeW1 Edge12 Edge23 Edge3E "/></vehicle>
	<vehicle id="138" depart="1824"><route edges="EdgeW1 Edge12 Edge23 Edge3E "/></vehicle>
	<vehicle id="139" depart="1832"><route edges="EdgeW1 Edge12 Edge2S2 "/></vehicle>
	<vehicle id="140" depart="1847"><route edges="EdgeS22 Edge23 Edge3N3 "/></vehicle>
	<vehicle id="141" depart="1853"><route edges="EdgeE3 Edge32 Edge21 Edge1W "/></vehicle>
	<vehicle id="142" depart="1855"><route edges="EdgeN22 Edge21 Edge1S1 "/></vehicle>
	<vehicle id="143" depart="1861"><route edges="EdgeN33 Edge32 Edge21 Edge1S1 "/></vehicle>
	<vehicle id="144" depart="1862"><route edges="EdgeE3 Edge32 Edge2S2 "/></vehicle>
	<vehicle id="145" depart="1864"><route edges="EdgeS22 Edge21 Edge1N1 "/></vehicle>
	<vehicle id="146" depart="1869"><route edges="EdgeS11 Edge12 Edge2N2 "/></vehicle>
	<vehicle id="147" depart="1870"><route edges="EdgeS22 Edge23 Edge3E "/></vehicle>
	<vehicle id="148" depart="1881"><route edges="EdgeN11 Edge12 Edge23 Edge3E "/></vehicle>
	<vehicle id="149" depart="1883"><route edges="EdgeN22 Edge21 Edge1N1 "/></vehicle>
	<vehicle id="150" depart="1897"><route edges="EdgeW1 Edge12 Edge23 Edge3E "/></vehicle>
	<vehicle id="151" depart="1901"><route edges="EdgeE3 Edge32 Edge21 Edge1W "/></vehicle>
	<vehicle id="152" depart="1903"><route edges="EdgeE3 Edge3N3"/></vehicle>
	<vehicle id="153" depart="1905"><route edges="EdgeS33 Edge32 Edge21 Edge1N1 "/></vehicle>
	<vehicle id="154" depart="1905"><route edges="EdgeW1 Edge12 Edge23 Edge3E "/></vehicle>
	<vehicle id="155" depart="1907"><route edges="EdgeS22 Edge23 Edge3N3 "/></vehicle>
	<vehicle id="156" depart="1912"><route edges="EdgeW1 Edge12 Edge2S2 "/></vehicle>
	<vehicle id="157" depart="1915"><route edges="EdgeS22 Edge23 Edge3N3 "/></vehicle>
	<vehicle id="158" depart="1919"><route edges="EdgeS33 Edge32 Edge21 Edge1N1 "/></vehicle>
	<vehicle id="159" depart="1923"><route edges="EdgeS11 Edge12 Edge23 Edge3S3 "/></vehicle>
	<vehicle id="160" depart="1927"><route edges="EdgeS11 Edge12 Edge23 Edge3S3 "/></vehicle>
	<vehicle id="161" depart="1928"><route edges="EdgeW1 Edge12 Edge23 Edge3E "/></vehicle>
	<vehicle id="162" depart="1928"><route edges="EdgeW1 Edge12 Edge23 Edge3S3 "/></vehicle>
	<vehicle id="163" depart="1931"><route edges="EdgeE3 Edge32 Edge21 Edge1W "/></vehicle>
	<vehicle id="164" depart="1936"><route edges="EdgeN33 Edge32 Edge21 Edge1N1 "/></vehicle>
	<vehicle id="165" depart="1942"><route edges="EdgeN11 Edge12 Edge23 Edge3S3 "/></vehicle>
	<vehicle id="166" depart="1946"><route edges="EdgeE3 Edge32 Edge21 Edge1W "/></vehicle>
	<vehicle id="167" depart="1949"><route edges="EdgeE3 Edge32 Edge21 Edge1W "/></vehicle>
	<vehicle id="168" depart="1950"><route edges="EdgeE3 Edge3S3"/></vehicle>
	<vehicle id="169" depart="1954"><route edges="EdgeE3 Edge32 Edge21 Edge1W "/></vehicle>
	<vehicle id="170" depart="1958"><route edges="EdgeN11 Edge12 Edge23 Edge3S3 "/></vehicle>
	<vehicle id="171" depart="1961"><route edges="EdgeW1 Edge12 Edge23 Edge3N3 "/></vehicle>
	<vehicle id="172" depart="1961"><route edges="EdgeN33 Edge32 Edge2N2 "/></vehicle>
	<vehicle id="173" depart="1963"><route edges="EdgeW1 Edge12 Edge23 Edge3E "/></vehicle>
	<vehicle id="174" depart="1967"><route edges="EdgeN33 Edge32 Edge21 Edge1S1 "/></vehicle>
	<vehicle id="175" depart="1967"><route edges="EdgeW1 Edge12 Edge23 Edge3E "/></vehicle>
	<vehicle id="176" depart="1969"><route edges="EdgeN11 Edge12 Edge2N2 "/></vehicle>
	<vehicle id="177" depart="1970"><route edges="EdgeE3 Edge32 Edge2N2 "/></vehicle>
	<vehicle id="178" depart="1976"><route edges="EdgeW1 Edge12 Edge2S2 "/></vehicle>
	<vehicle id="179" depart="1983"><route edges="EdgeS22 Edge21 Edge1N1 "/></vehicle>
	<vehicle id="180" depart="1984"><route edges="EdgeN11 Edge1W"/></vehicle>
	<vehicle id="181" depart="2001"><route edges="EdgeS33 Edge3E"/></vehicle>
	<vehicle id="182" depart="2006"><route edges="EdgeS33 Edge32 Edge21 Edge1N1 "/></vehicle>
	<vehicle id="183" depart="2006"><route edges="EdgeN11 Edge1S1"/></vehicle>
	<vehicle id="184" depart="2008"><route edges="EdgeN22 Edge23 Edge3S3 "/></vehicle>
	<vehicle id="185" depart="2009"><route edges="EdgeW1 Edge12 Edge23 Edge3N3 "/></vehicle>
	<vehicle id="186" depart="2009"><route edges="EdgeS22 Edge23 Edge3N3 "/></vehicle>
	<vehicle id="187" depart="2016"><route edges="EdgeN22 Edge21 Edge1S1 "/></vehicle>
	<vehicle id="188" depart="2019"><route edges="EdgeN11 Edge12 Edge23 Edge3N3 "/></vehicle>
	<vehicle id="189" depart="2026"><route edges="EdgeS33 Edge3N3"/></vehicle>
	<vehicle id="190" depart="2029"><route edges="EdgeN22 Edge21 Edge1S1 "/></vehicle>
	<vehicle id="191" depart="2029"><route edges="EdgeS22 Edge21 Edge1N1 "/></vehicle>
	<vehicle id="192" depart="2032"><route edges="EdgeS11 Edge12 Edge2N2 "/></vehicle>
	<vehicle id="193" depart="2033"><route edges="EdgeW1 Edge12 Edge23 Edge3N3 "/></vehicle>
	<vehicle id="194" depart="2034"><route edges="EdgeE3 Edge3S3"/></vehicle>
	<vehicle id="195" depart="2037"><route edges="EdgeS33 Edge32 Edge2S2 "/></vehicle>
	<vehicle id="196" depart="2039"><route edges="EdgeS11 Edge1W"/></vehicle>
	<vehicle id="197" depart="2044"><route edges="EdgeW1 Edge1S1"/></vehicle>
	<vehicle id="198" depart="2053"><route edges="EdgeN22 Edge23 Edge3E "/></vehicle>
	<vehicle id="199" depart="2077"><route edges="EdgeN33 Edge32 Edge21 Edge1N1 "/></vehicle>
	<vehicle id="200" depart="2077"><route edges="EdgeN11 Edge1S1"/></vehicle>
	<vehicle id="201" depart="2078"><route edges="EdgeS11 Edge12 Edge2S2 "/></vehicle>
	<vehicle id="202" depart="2082"><route edges="EdgeS22 Edge21 Edge1S1 "/></vehicle>
	<vehicle id="203" depart="2084"><route edges="EdgeN11 Edge12 Edge2S2 "/></vehicle>
	<vehicle id="204" depart="2089"><route edges="EdgeN33 Edge32 Edge21 Edge1N1 "/></vehicle>
	<vehicle id="205" depart="2092"><route edges="EdgeW1 Edge12 Edge2S2 "/></vehicle>
	<vehicle id="206" depart="2102"><route edges="EdgeW1 Edge1S1"/></vehicle>
	<vehicle id="207" depart="2108"><route edges="EdgeN11 Edge12 Edge2N2 "/></vehicle>
	<vehicle id="208" depart="2111"><route edges="EdgeW1 Edge1S1"/></vehicle>
	<vehicle id="209" depart="2114"><route edges="EdgeS11 Edge12 Edge23 Edge3E "/></vehicle>
	<vehicle id="210" depart="2120"><route edges="EdgeE3 Edge32 Edge2N2 "/></vehicle>
	<vehicle id="211" depart="2126"><route edges="EdgeW1 Edge12 Edge23 Edge3E "/></vehicle>
	<vehicle id="212" depart="2126"><route edges="EdgeS33 Edge32 Edge2N2 "/></vehicle>
	<vehicle id="213" depart="2129"><route edges="EdgeE3 Edge32 Edge21 Edge1W "/></vehicle>
	<vehicle id="214" depart="2130"><route edges="EdgeN11 Edge12 Edge23 Edge3S3 "/></vehicle>
	<vehicle id="215" depart="2137"><route edges="EdgeW1 Edge12 Edge23 Edge3E "/></vehicle>
	<vehicle id="216" depart="2140"><route edges="EdgeS22 Edge23 Edge3S3 "/></vehicle>
	<vehicle id="217" depart="2158"><route edges="EdgeS33 Edge32 Edge2S2 "/></vehicle>
	<vehicle id="218" depart="2160"><route edges="EdgeW1 Edge12 Edge23 Edge3E "/></vehicle>
	<vehicle id="219" depart="2166"><route edges="EdgeE3 Edge32 Edge21 Edge1S1 "/></vehicle>
	<vehicle id="220" depart="2173"><route edges="EdgeS11 Edge1N1"/></vehicle>
	<vehicle id="221" depart="2174"><route edges="EdgeE3 Edge32 Edge21 Edge1W "/></vehicle>
	<vehicle id="222" depart="2175"><route edges="EdgeN33 Edge3S3"/></vehicle>
	<vehicle id="223" depart="2178"><route edges="EdgeN33 Edge32 Edge2N2 "/></vehicle>
	<vehicle id="224" depart="2180"><route edges="EdgeN11 Edge12 Edge23 Edge3N3 "/></vehicle>
	<vehicle id="225" depart="2181"><route edges="EdgeS33 Edge32 Edge21 Edge1S1 "/></vehicle>
	<vehicle id="226" depart="2183"><route edges="EdgeN22 Edge21 Edge1S1 "/></vehicle>
	<vehicle id="227" depart="2187"><route edges="EdgeW1 Edge12 Edge23 Edge3S3 "/></vehicle>
	<vehicle id="228" depart="2187"><route edges="EdgeS22 Edge21 Edge1S1 "/></vehicle>
	<vehicle id="229" depart="2191"><route edges="EdgeE3 Edge32 Edge2S2 "/></vehicle>
	<vehicle id="230" depart="2193"><route edges="EdgeE3 Edge32 Edge2S2 "/></vehicle>
	<vehicle id="231" depart="2195"><route edges="EdgeN11 Edge12 Edge23 Edge3N3 "/></vehicle>
	<vehicle id="232" depart="2203"><route edges="EdgeW1 Edge12 Edge23 Edge3E "/></vehicle>
	<vehicle id="233" depart="2215"><route edges="EdgeS22 Edge2N2"/></vehicle>
	<vehicle id="234" depart="2216"><route edges="EdgeN22 Edge23 Edge3N3 "/></vehicle>
	<vehicle id="235" depart="2218"><route edges="EdgeS22 Edge2N2"/></vehicle>
	<vehicle id="236" depart="2219"><route edges="EdgeN33 Edge3S3"/></vehicle>
	<vehicle id="237" depart="2223"><route edges="EdgeW1 Edge1S1"/></vehicle>
	<vehicle id="238" depart="2225"><route edges="EdgeN11 Edge12 Edge23 Edge3E "/></vehicle>
	<vehicle id="239" depart="2225"><route edges="EdgeW1 Edge12 Edge2S2 "/></vehicle>
	<vehicle id="240" depart="2228"><route edges="EdgeS33 Edge32 Edge2S2 "/></vehicle>
	<vehicle id="241" depart="2230"><route edges="EdgeS33 Edge32 Edge21 Edge1S1 "/></vehicle>
	<vehicle id="242" depart="2233"><route edges="EdgeE3 Edge32 Edge21 Edge1W "/></vehicle>
	<vehicle id="243" depart="2237"><route edges="EdgeW1 Edge12 Edge23 Edge3E "/></vehicle>
	<vehicle id="244" depart="2239"><route edges="EdgeN22 Edge21 Edge1S1 "/></vehicle>
	<vehicle id="245" depart="2244"><route edges="EdgeS33 Edge3E"/></vehicle>
	<vehicle id="246" depart="2245"><route edges="EdgeE3 Edge32 Edge2N2 "/></vehicle>
	<vehicle id="247" depart="2247"><route edges="EdgeE3 Edge32 Edge21 Edge1W "/></vehicle>
	<vehicle id="248" depart="2261"><route edges="EdgeE3 Edge32 Edge2N2 "/></vehicle>
	<vehicle id="249" depart="2262"><route edges="EdgeN22 Edge21 Edge1W "/></vehicle>
	<vehicle id="250" depart="2263"><route edges="EdgeS11 Edge12 Edge2S2 "/></vehicle>
	<vehicle id="251" depart="2264"><route edges="EdgeN33 Edge32 Edge2N2 "/></vehicle>
	<vehicle id="252" depart="2267"><route edges="EdgeN11 Edge1S1"/></vehicle>
	<vehicle id="253" depart="2271"><route edges="EdgeN22 Edge23 Edge3E "/></vehicle>
	<vehicle id="254" depart="2273"><route edges="EdgeW1 Edge12 Edge23 Edge3E "/></vehicle>
	<vehicle id="255" depart="2277"><route edges="EdgeN33 Edge32 Edge21 Edge1W "/></vehicle>
	<vehicle id="256" depart="2293"><route edges="EdgeN22 Edge21 Edge1W "/></vehicle>
	<vehicle id="257" depart="2293"><route edges="EdgeS11 Edge12 Edge23 Edge3S3 "/></vehicle>
	<vehicle id="258" depart="2306"><route edges="EdgeS22 Edge21 Edge1N1 "/></vehicle>
	<vehicle id="259" depart="2311"><route edges="EdgeS33 Edge3N3"/></vehicle>
	<vehicle id="260" depart="2316"><route edges="EdgeW1 Edge1N1"/></vehicle>
	<vehicle id="261" depart="2321"><route edges="EdgeN22 Edge23 Edge3N3 "/></vehicle>
	<vehicle id="262" depart="2322"><route edges="EdgeN11 Edge12 Edge23 Edge3E "/></vehicle>
	<vehicle id="263" depart="2326"><route edges="EdgeS33 Edge32 Edge21 Edge1S1 "/></vehicle>
	<vehicle id="264" depart="2326"><route edges="EdgeS22 Edge23 Edge3E "/></vehicle>
	<vehicle id="265" depart="2327"><route edges="EdgeS33 Edge32 Edge2N2 "/></vehicle>
	<vehicle id="266" depart="2332"><route edges="EdgeS33 Edge32 Edge2S2 "/></vehicle>
	<vehicle id="267" depart="2332"><route edges="EdgeW1 Edge12 Edge23 Edge3S3 "/></vehicle>
	<vehicle id="268" depart="2350"><route edges="EdgeS22 Edge21 Edge1S1 "/></vehicle>
	<vehicle id="269" depart="2355"><route edges="EdgeE3 Edge32 Edge2N2 "/></vehicle>
	<vehicle id="270" depart="2356"><route edges="EdgeW1 Edge12 Edge23 Edge3E "/></vehicle>
	<vehicle id="271" depart="2357"><route edges="EdgeN11 Edge1W"/></vehicle>
	<vehicle id="272" depart="2358"><route edges="EdgeE3 Edge32 Edge21 Edge1W "/></vehicle>
	<vehicle id="273" depart="2365"><route edges="EdgeN11 Edge1W"/></vehicle>
	<vehicle id="274" depart="2374"><route edges="EdgeN22 Edge2S2"/></vehicle>
	<vehicle id="275" depart="2377"><route edges="EdgeN22 Edge23 Edge3S3 "/></vehicle>
	<vehicle id="276" depart="2378"><route edges="EdgeN33 Edge32 Edge2N2 "/></vehicle>
	<vehicle id="277" depart="2378"><route edges="EdgeW1 Edge12 Edge2N2 "/></vehicle>
	<vehicle id="278" depart="2389"><route edges="EdgeN33 Edge32 Edge2S2 "/></vehicle>
	<vehicle id="279" depart="2393"><route edges="EdgeS33 Edge3N3"/></vehicle>
	<vehicle id="280" depart="2395"><route edges="EdgeE3 Edge32 Edge21 Edge1N1 "/></vehicle>
	<vehicle id="281" depart="2395"><route edges="EdgeN11 Edge1W"/></vehicle>
	<vehicle id="282" depart="2400"><route edges="EdgeS11 Edge12 Edge2S2 "/></vehicle>
	<vehicle id="283" depart="2400"><route edges="EdgeE3 Edge32 Edge21 Edge1W "/></vehicle>
	<vehicle id="284" depart="2402"><route edges="EdgeN33 Edge32 Edge21 Edge1S1 "/></vehicle>
	<vehicle id="285" depart="2405"><route edges="EdgeN22 Edge21 Edge1S1 "/></vehicle>
	<vehicle id="286" depart="2410"><route edges="EdgeW1 Edge12 Edge23 Edge3S3 "/></vehicle>
	<vehicle id="287" depart="2411"><route edges="EdgeN22 Edge2S2"/></vehicle>
	<vehicle id="288" depart="2412"><route edges="EdgeS11 Edge12 Edge23 Edge3N3 "/></vehicle>
	<vehicle id="289" depart="2422"><route edges="EdgeW1 Edge12 Edge23 Edge3E "/></vehicle>
	<vehicle id="290" depart="2422"><route edges="EdgeW1 Edge12 Edge23 Edge3N3 "/></vehicle>
	<vehicle id="291" depart="2423"><route edges="EdgeW1 Edge12 Edge23 Edge3E "/></vehicle>
	<vehicle id="292" depart="2426"><route edges="EdgeN33 Edge32 Edge21 Edge1N1 "/></vehicle>
	<vehicle id="293" depart="2427"><route edges="EdgeS33 Edge32 Edge21 Edge1W "/></vehicle>
	<vehicle id="294" depart="2430"><route edges="EdgeN11 Edge12 Edge23 Edge3N3 "/></vehicle>
	<vehicle id="295" depart="2434"><route edges="EdgeS11 Edge12 Edge23 Edge3N3 "/></vehicle>
	<vehicle id="296" depart="2440"><route edges="EdgeS11 Edge1N1"/></vehicle>
	<vehicle id="297" depart="2445"><route edges="EdgeN33 Edge32 Edge21 Edge1W "/></vehicle>
	<vehicle id="298" depart="2446"><route edges="EdgeS11 Edge12 Edge23 Edge3S3 "/></vehicle>
	<vehicle id="299" depart="2449"><route edges="EdgeN33 Edge32 Edge21 Edge1W "/></vehicle>
	<vehicle id="300" depart="2452"><route edges="EdgeN22 Edge23 Edge3N3 "/></vehicle>
	<vehicle id="301" depart="2452"><route edges="EdgeN22 Edge21 Edge1N1 "/></vehicle>
	<vehicle id="302" depart="2454"><route edges="EdgeN11 Edge1W"/></vehicle>
	<vehicle id="303" depart="2458"><route edges="EdgeS11 Edge12 Edge2N2 "/></vehicle>
	<vehicle id="304" depart="2458"><route edges="EdgeN33 Edge32 Edge21 Edge1S1 "/></vehicle>
	<vehicle id="305" depart="2462"><route edges="EdgeW1 Edge12 Edge23 Edge3N3 "/></vehicle>
	<vehicle id="306" depart="2463"><route edges="EdgeE3 Edge3S3"/></vehicle>
	<vehicle id="307" depart="2468"><route edges="EdgeS11 Edge1W"/></vehicle>
	<vehicle id="308" depart="2473"><route edges="EdgeE3 Edge32 Edge21 Edge1W "/></vehicle>
	<vehicle id="309" depart="2476"><route edges="EdgeE3 Edge32 Edge21 Edge1N1 "/></vehicle>
	<vehicle id="310" depart="2478"><route edges="EdgeS22 Edge23 Edge3E "/></vehicle>
	<vehicle id="311" depart="2478"><route edges="EdgeN11 Edge12 Edge23 Edge3N3 "/></vehicle>
	<vehicle id="312" depart="2484"><route edges="EdgeN22 Edge2S2"/></vehicle>
	<vehicle id="313" depart="2484"><route edges="EdgeN33 Edge32 Edge21 Edge1W "/></vehicle>
	<vehicle id="314" depart="2488"><route edges="EdgeS33 Edge32 Edge21 Edge1S1 "/></vehicle>
	<vehicle id="315" depart="2489"><route edges="EdgeN33 Edge32 Edge21 Edge1S1 "/></vehicle>
	<vehicle id="316" depart="2492"><route edges="EdgeS11 Edge12 Edge23 Edge3S3 "/></vehicle>
	<vehicle id="317" depart="2494"><route edges="EdgeS33 Edge32 Edge2S2 "/></vehicle>
	<vehicle id="318" depart="2495"><route edges="EdgeE3 Edge3N3"/></vehicle>
	<vehicle id="319" depart="2500"><route edges="EdgeW1 Edge12 Edge23 Edge3N3 "/></vehicle>
	<vehicle id="320" depart="2508"><route edges="EdgeS33 Edge32 Edge21 Edge1W "/></vehicle>
	<vehicle id="321" depart="2510"><route edges="EdgeS22 Edge23 Edge3N3 "/></vehicle>
	<vehicle id="322" depart="2511"><route edges="EdgeS22 Edge21 Edge1S1 "/></vehicle>
	<vehicle id="323" depart="2514"><route edges="EdgeN33 Edge3S3"/></vehicle>
	<vehicle id="324" depart="2516"><route edges="EdgeS11 Edge1W"/></vehicle>
	<vehicle id="325" depart="2517"><route edges="EdgeW1 Edge12 Edge23 Edge3E "/></vehicle>
	<vehicle id="326" depart="2530"><route edges="EdgeS11 Edge1W"/></vehicle>
	<vehicle id="327" depart="2533"><route edges="EdgeE3 Edge32 Edge21 Edge1W "/></vehicle>
	<vehicle id="328" depart="2537"><route edges="EdgeE3 Edge32 Edge2N2 "/></vehicle>
	<vehicle id="329" depart="2537"><route edges="EdgeS11 Edge12 Edge23 Edge3S3 "/></vehicle>
	<vehicle id="330" depart="2539"><route edges="EdgeN22 Edge21 Edge1S1 "/></vehicle>
	<vehicle id="331" depart="2540"><route edges="EdgeE3 Edge32 Edge21 Edge1W "/></vehicle>
	<vehicle id="332" depart="2542"><route edges="EdgeN22 Edge23 Edge3E "/></vehicle>
	<vehicle id="333" depart="2544"><route edges="EdgeS11 Edge1W"/></vehicle>
	<vehicle id="334" depart="2546"><route edges="EdgeE3 Edge32 Edge2N2 "/></vehicle>
	<vehicle id="335" depart="2554"><route edges="EdgeW1 Edge12 Edge23 Edge3E "/></vehicle>
	<vehicle id="336" depart="2556"><route edges="EdgeW1 Edge12 Edge23 Edge3E "/></vehicle>
	<vehicle id="337" depart="2558"><route edges="EdgeS33 Edge32 Edge21 Edge1W "/></vehicle>
	<vehicle id="338" depart="2561"><route edges="EdgeS33 Edge32 Edge2N2 "/></vehicle>
	<vehicle id="339" depart="2564"><route edges="EdgeS33 Edge3N3"/></vehicle>
	<vehicle id="340" depart="2567"><route edges="EdgeE3 Edge32 Edge21 Edge1S1 "/></vehicle>
	<vehicle id="341" depart="2567"><route edges="EdgeE3 Edge32 Edge21 Edge1W "/></vehicle>
	<vehicle id="342" depart="2585"><route edges="EdgeN22 Edge21 Edge1S1 "/></vehicle>
	<vehicle id="343" depart="2588"><route edges="EdgeN11 Edge12 Edge23 Edge3N3 "/></vehicle>
	<vehicle id="344" depart="2588"><route edges="EdgeN22 Edge23 Edge3E "/></vehicle>
	<vehicle id="345" depart="2588"><route edges="EdgeW1 Edge1N1"/></vehicle>
	<vehicle id="346" depart="2598"><route edges="EdgeS33 Edge32 Edge21 Edge1N1 "/></vehicle>
	<vehicle id="347" depart="2598"><route edges="EdgeS11 Edge12 Edge23 Edge3S3 "/></vehicle>
	<vehicle id="348" depart="2598"><route edges="EdgeN11 Edge12 Edge23 Edge3N3 "/></vehicle>
	<vehicle id="349" depart="2606"><route edges="EdgeN22 Edge23 Edge3E "/></vehicle>
	<vehicle id="350" depart="2608"><route edges="EdgeW1 Edge12 Edge23 Edge3E "/></vehicle>
	<vehicle id="351" depart="2608"><route edges="EdgeE3 Edge32 Edge2S2 "/></vehicle>
	<vehicle id="352" depart="2619"><route edges="EdgeS22 Edge21 Edge1W "/></vehicle>
	<vehicle id="353" depart="2620"><route edges="EdgeS33 Edge32 Edge2S2 "/></vehicle>