<?xml version="1.0" encoding="UTF-8"?>
<routes xmlns:xsi="http://www.w3.org/2001/XMLSchema-instance" xsi:noNamespaceSchemaLocation="http://sumo.dlr.de/xsd/routes_file.xsd">
	<vehicle id="0" depart="58"><route edges="EdgeN33 Edge32 Edge21 Edge1N1 "/></vehicle>
	<vehicle id="1" depart="72"><route edges="EdgeS11 Edge12 Edge23 Edge3S3 "/></vehicle>
	<vehicle id="2" depart="91"><route edges="EdgeN33 Edge32 Edge2N2 "/></vehicle>
	<vehicle id="3" depart="101"><route edges="EdgeS11 Edge1W"/></vehicle>
	<vehicle id="4" depart="170"><route edges="EdgeW1 Edge12 Edge2N2 "/></vehicle>
	<vehicle id="5" depart="175"><route edges="EdgeW1 Edge12 Edge2S2 "/></vehicle>
	<vehicle id="6" depart="180"><route edges="EdgeW1 Edge1N1"/></vehicle>
	<vehicle id="7" depart="208"><route edges="EdgeS11 Edge12 Edge23 Edge3E "/></vehicle>
	<vehicle id="8" depart="222"><route edges="EdgeE3 Edge32 Edge21 Edge1W "/></vehicle>
	<vehicle id="9" depart="301"><route edges="EdgeE3 Edge32 Edge21 Edge1W "/></vehicle>
	<vehicle id="10" depart="303"><route edges="EdgeN11 Edge1S1"/></vehicle>
	<vehicle id="11" depart="309"><route edges="EdgeN33 Edge32 Edge2N2 "/></vehicle>
	<vehicle id="12" depart="348"><route edges="EdgeE3 Edge32 Edge21 Edge1W "/></vehicle>
	<vehicle id="13" depart="352"><route edges="EdgeN22 Edge23 Edge3E "/></vehicle>
	<vehicle id="14" depart="358"><route edges="EdgeW1 Edge1S1"/></vehicle>
	<vehicle id="15" depart="399"><route edges="EdgeS11 Edge1W"/></vehicle>
	<vehicle id="16" depart="409"><route edges="EdgeS22 Edge21 Edge1S1 "/></vehicle>
	<vehicle id="17" depart="420"><route edges="EdgeS11 Edge12 Edge23 Edge3S3 "/></vehicle>
	<vehicle id="18" depart="491"><route edges="EdgeS33 Edge32 Edge21 Edge1N1 "/></vehicle>
	<vehicle id="19" depart="528"><route edges="EdgeN22 Edge23 Edge3E "/></vehicle>
	<vehicle id="20" depart="538"><route edges="EdgeE3 Edge3S3"/></vehicle>
	<vehicle id="21" depart="554"><route edges="EdgeN11 Edge1W"/></vehicle>
	<vehicle id="22" depart="555"><route edges="EdgeS22 Edge23 Edge3S3 "/></vehicle>
	<vehicle id="23" depart="561"><route edges="EdgeN22 Edge2S2"/></vehicle>
	<vehicle id="24" depart="586"><route edges="EdgeE3 Edge32 Edge21 Edge1W "/></vehicle>
	<vehicle id="25" depart="589"><route edges="EdgeN22 Edge2S2"/></vehicle>
	<vehicle id="26" depart="591"><route edges="EdgeW1 Edge1S1"/></vehicle>
	<vehicle id="27" depart="599"><route edges="EdgeE3 Edge3N3"/></vehicle>
	<vehicle id="28" depart="600"><route edges="EdgeW1 Edge12 Edge23 Edge3E "/></vehicle>
	<vehicle id="29" depart="615"><route edges="EdgeS33 Edge3E"/></vehicle>
	<vehicle id="30" depart="661"><route edges="EdgeE3 Edge32 Edge21 Edge1N1 "/></vehicle>
	<vehicle id="31" depart="682"><route edges="EdgeW1 Edge12 Edge23 Edge3E "/></vehicle>
	<vehicle id="32" depart="691"><route edges="EdgeS11 Edge12 Edge2N2 "/></vehicle>
	<vehicle id="33" depart="694"><route edges="EdgeS22 Edge2N2"/></vehicle>
	<vehicle id="34" depart="695"><route edges="EdgeN11 Edge12 Edge23 Edge3N3 "/></vehicle>
	<vehicle id="35" depart="695"><route edges="EdgeN11 Edge12 Edge23 Edge3S3 "/></vehicle>
	<vehicle id="36" depart="717"><route edges="EdgeN22 Edge21 Edge1W "/></vehicle>
	<vehicle id="37" depart="721"><route edges="EdgeW1 Edge12 Edge2S2 "/></vehicle>
	<vehicle id="38" depart="726"><route edges="EdgeN33 Edge32 Edge2N2 "/></vehicle>
	<vehicle id="39" depart="733"><route edges="EdgeE3 Edge3N3"/></vehicle>
	<vehicle id="40" depart="739"><route edges="EdgeW1 Edge12 Edge23 Edge3E "/></vehicle>
	<vehicle id="41" depart="761"><route edges="EdgeW1 Edge12 Edge23 Edge3E "/></vehicle>
	<vehicle id="42" depart="768"><route edges="EdgeS11 Edge12 Edge23 Edge3N3 "/></vehicle>
	<vehicle id="43" depart="799"><route edges="EdgeE3 Edge32 Edge21 Edge1N1 "/></vehicle>
	<vehicle id="44" depart="799"><route edges="EdgeN33 Edge32 Edge2N2 "/></vehicle>
	<vehicle id="45" depart="805"><route edges="EdgeN11 Edge12 Edge23 Edge3E "/></vehicle>
	<vehicle id="46" depart="823"><route edges="EdgeE3 Edge32 Edge21 Edge1W "/></vehicle>
	<vehicle id="47" depart="823"><route edges="EdgeS11 Edge1W"/></vehicle>
	<vehicle id="48" depart="826"><route edges="EdgeS22 Edge23 Edge3E "/></vehicle>
	<vehicle id="49" depart="829"><route edges="EdgeE3 Edge32 Edge21 Edge1S1 "/></vehicle>
	<vehicle id="50" depart="853"><route edges="EdgeS22 Edge2N2"/></vehicle>
	<vehicle id="51" depart="879"><route edges="EdgeS11 Edge1W"/></vehicle>
	<vehicle id="52" depart="887"><route edges="EdgeE3 Edge3S3"/></vehicle>
	<vehicle id="53" depart="889"><route edges="EdgeW1 Edge12 Edge23 Edge3N3 "/></vehicle>
	<vehicle id="54" depart="909"><route edges="EdgeN33 Edge3S3"/></vehicle>
	<vehicle id="55" depart="920"><route edges="EdgeN33 Edge32 Edge21 Edge1W "/></vehicle>
	<vehicle id="56" depart="965"><route edges="EdgeN11 Edge12 Edge23 Edge3E "/></vehicle>
	<vehicle id="57" depart="970"><route edges="EdgeN22 Edge21 Edge1W "/></vehicle>
	<vehicle id="58" depart="996"><route edges="EdgeN33 Edge32 Edge21 Edge1S1 "/></vehicle>
	<vehicle id="59" depart="1003"><route edges="EdgeS33 Edge32 Edge21 Edge1W "/></vehicle>
	<vehicle id="60" depart="1033"><route edges="EdgeN11 Edge12 Edge2S2 "/></vehicle>
	<vehicle id="61" depart="1036"><route edges="EdgeS11 Edge12 Edge23 Edge3E "/></vehicle>
	<vehicle id="62" depart="1042"><route edges="EdgeN22 Edge21 Edge1N1 "/></vehicle>
	<vehicle id="63" depart="1066"><route edges="EdgeS22 Edge23 Edge3E "/></vehicle>
	<vehicle id="64" depart="1070"><route edges="EdgeW1 Edge1N1"/></vehicle>
	<vehicle id="65" depart="1098"><route edges="EdgeW1 Edge12 Edge23 Edge3E "/></vehicle>
	<vehicle id="66" depart="1111"><route edges="EdgeN33 Edge3S3"/></vehicle>
	<vehicle id="67" depart="1132"><route edges="EdgeE3 Edge32 Edge2S2 "/></vehicle>
	<vehicle id="68" depart="1168"><route edges="EdgeW1 Edge12 Edge23 Edge3E "/></vehicle>
	<vehicle id="69" depart="1190"><route edges="EdgeN33 Edge32 Edge21 Edge1W "/></vehicle>
	<vehicle id="70" depart="1190"><route edges="EdgeW1 Edge12 Edge23 Edge3E "/></vehicle>
	<vehicle id="71" depart="1240"><route edges="EdgeN11 Edge12 Edge23 Edge3N3 "/></vehicle>
	<vehicle id="72" depart="1276"><route edges="EdgeN22 Edge2S2"/></vehicle>
	<vehicle id="73" depart="1291"><route edges="EdgeS11 Edge1N1"/></vehicle>
	<vehicle id="74" depart="1309"><route edges="EdgeS33 Edge32 Edge21 Edge1S1 "/></vehicle>
	<vehicle id="75" depart="1316"><route edges="EdgeN22 Edge23 Edge3S3 "/></vehicle>
	<vehicle id="76" depart="1319"><route edges="EdgeN33 Edge32 Edge21 Edge1W "/></vehicle>
	<vehicle id="77" depart="1324"><route edges="EdgeW1 Edge12 Edge23 Edge3E "/></vehicle>
	<vehicle id="78" depart="1372"><route edges="EdgeE3 Edge32 Edge2N2 "/></vehicle>
	<vehicle id="79" depart="1382"><route edges="EdgeN33 Edge3S3"/></vehicle>
	<vehicle id="80" depart="1393"><route edges="EdgeS33 Edge32 Edge21 Edge1N1 "/></vehicle>
	<vehicle id="81" depart="1404"><route edges="EdgeN33 Edge3S3"/></vehicle>
	<vehicle id="82" depart="1408"><route edges="EdgeE3 Edge32 Edge21 Edge1S1 "/></vehicle>
	<vehicle id="83" depart="1415"><route edges="EdgeN33 Edge32 Edge21 Edge1W "/></vehicle>
	<vehicle id="84" depart="1421"><route edges="EdgeE3 Edge3S3"/></vehicle>
	<vehicle id="85" depart="1434"><route edges="EdgeE3 Edge32 Edge2S2 "/></vehicle>
	<vehicle id="86" depart="1436"><route edges="EdgeN22 Edge23 Edge3S3 "/></vehicle>
	<vehicle id="87" depart="1442"><route edges="EdgeN33 Edge32 Edge21 Edge1W "/></vehicle>
	<vehicle id="88" depart="1448"><route edges="EdgeE3 Edge32 Edge21 Edge1W "/></vehicle>
	<vehicle id="89" depart="1458"><route edges="EdgeN33 Edge32 Edge21 Edge1N1 "/></vehicle>
	<vehicle id="90" depart="1468"><route edges="EdgeW1 Edge12 Edge2S2 "/></vehicle>
	<vehicle id="91" depart="1474"><route edges="EdgeE3 Edge32 Edge21 Edge1W "/></vehicle>
	<vehicle id="92" depart="1489"><route edges="EdgeS22 Edge2N2"/></vehicle>
	<vehicle id="93" depart="1505"><route edges="EdgeE3 Edge3S3"/></vehicle>
	<vehicle id="94" depart="1506"><route edges="EdgeE3 Edge32 Edge21 Edge1W "/></vehicle>
	<vehicle id="95" depart="1508"><route edges="EdgeS33 Edge3N3"/></vehicle>
	<vehicle id="96" depart="1509"><route edges="EdgeW1 Edge12 Edge23 Edge3E "/></vehicle>
	<vehicle id="97" depart="1509"><route edges="EdgeE3 Edge32 Edge21 Edge1N1 "/></vehicle>
	<vehicle id="98" depart="1509"><route edges="EdgeN33 Edge3S3"/></vehicle>
	<vehicle id="99" depart="1513"><route edges="EdgeS11 Edge12 Edge23 Edge3S3 "/></vehicle>
	<vehicle id="100" depart="1514"><route edges="EdgeS33 Edge32 Edge2S2 "/></vehicle>
	<vehicle id="101" depart="1549"><route edges="EdgeS11 Edge1N1"/></vehicle>
	<vehicle id="102" depart="1559"><route edges="EdgeS11 Edge12 Edge23 Edge3S3 "/></vehicle>
	<vehicle id="103" depart="1574"><route edges="EdgeE3 Edge32 Edge21 Edge1W "/></vehicle>
	<vehicle id="104" depart="1577"><route edges="EdgeN11 Edge1S1"/></vehicle>
	<vehicle id="105" depart="1585"><route edges="EdgeN22 Edge21 Edge1W "/></vehicle>
	<vehicle id="106" depart="1597"><route edges="EdgeE3 Edge32 Edge2S2 "/></vehicle>
	<vehicle id="107" depart="1603"><route edges="EdgeN11 Edge12 Edge23 Edge3E "/></vehicle>
	<vehicle id="108" depart="1608"><route edges="EdgeE3 Edge32 Edge21 Edge1W "/></vehicle>
	<vehicle id="109" depart="1613"><route edges="EdgeN33 Edge32 Edge21 Edge1S1 "/></vehicle>
	<vehicle id="110" depart="1627"><route edges="EdgeW1 Edge12 Edge23 Edge3E "/></vehicle>
	<vehicle id="111" depart="1627"><route edges="EdgeE3 Edge32 Edge2N2 "/></vehicle>
	<vehicle id="112" depart="1646"><route edges="EdgeN22 Edge23 Edge3E "/></vehicle>
	<vehicle id="113" depart="1660"><route edges="EdgeS33 Edge32 Edge21 Edge1N1 "/></vehicle>
	<vehicle id="114" depart="1664"><route edges="EdgeN22 Edge21 Edge1N1 "/></vehicle>
	<vehicle id="115" depart="1673"><route edges="EdgeS22 Edge21 Edge1W "/></vehicle>
	<vehicle id="116" depart="1677"><route edges="EdgeE3 Edge32 Edge2N2 "/></vehicle>
	<vehicle id="117" depart="1688"><route edges="EdgeE3 Edge32 Edge21 Edge1W "/></vehicle>
	<vehicle id="118" depart="1696"><route edges="EdgeN22 Edge21 Edge1S1 "/></vehicle>
	<vehicle id="119" depart="1697"><route edges="EdgeW1 Edge12 Edge23 Edge3E "/></vehicle>
	<vehicle id="120" depart="1707"><route edges="EdgeN33 Edge3E"/></vehicle>
	<vehicle id="121" depart="1710"><route edges="EdgeS11 Edge12 Edge23 Edge3E "/></vehicle>
	<vehicle id="122" depart="1715"><route edges="EdgeS11 Edge12 Edge2S2 "/></vehicle>
	<vehicle id="123" depart="1716"><route edges="EdgeS33 Edge3N3"/></vehicle>
	<vehicle id="124" depart="1724"><route edges="EdgeS22 Edge2N2"/></vehicle>
	<vehicle id="125" depart="1724"><route edges="EdgeW1 Edge12 Edge23 Edge3E "/></vehicle>
	<vehicle id="126" depart="1725"><route edges="EdgeS11 Edge12 Edge2N2 "/></vehicle>
	<vehicle id="127" depart="1727"><route edges="EdgeN33 Edge32 Edge21 Edge1S1 "/></vehicle>
	<vehicle id="128" depart="1736"><route edges="EdgeN22 Edge23 Edge3S3 "/></vehicle>
	<vehicle id="129" depart="1736"><route edges="EdgeE3 Edge3N3"/></vehicle>
	<vehicle id="130" depart="1740"><route edges="EdgeS33 Edge3E"/></vehicle>
	<vehicle id="131" depart="1753"><route edges="EdgeN11 Edge1W"/></vehicle>
	<vehicle id="132" depart="1754"><route edges="EdgeW1 Edge12 Edge23 Edge3E "/></vehicle>
	<vehicle id="133" depart="1756"><route edges="EdgeN33 Edge32 Edge21 Edge1N1 "/></vehicle>
	<vehicle id="134" depart="1763"><route edges="EdgeN11 Edge1W"/></vehicle>
	<vehicle id="135" depart="1767"><route edges="EdgeN33 Edge3S3"/></vehicle>
	<vehicle id="136" depart="1778"><route edges="EdgeN33 Edge32 Edge21 Edge1N1 "/></vehicle>
	<vehicle id="137" depart="1779"><route edges="EdgeN33 Edge32 Edge21 Edge1N1 "/></vehicle>
	<vehicle id="138" depart="1785"><route edges="EdgeW1 Edge1N1"/></vehicle>
	<vehicle id="139" depart="1786"><route edges="EdgeN11 Edge12 Edge2S2 "/></vehicle>
	<vehicle id="140" depart="1788"><route edges="EdgeS33 Edge32 Edge2S2 "/></vehicle>
	<vehicle id="141" depart="1789"><route edges="EdgeN11 Edge12 Edge2S2 "/></vehicle>
	<vehicle id="142" depart="1794"><route edges="EdgeN22 Edge23 Edge3S3 "/></vehicle>
	<vehicle id="143" depart="1819"><route edges="EdgeW1 Edge12 Edge23 Edge3E "/></vehicle>
	<vehicle id="144" depart="1824"><route edges="EdgeE3 Edge32 Edge21 Edge1W "/></vehicle>
	<vehicle id="145" depart="1826"><route edges="EdgeN11 Edge1S1"/></vehicle>
	<vehicle id="146" depart="1833"><route edges="EdgeN22 Edge21 Edge1W "/></vehicle>
	<vehicle id="147" depart="1834"><route edges="EdgeW1 Edge12 Edge2N2 "/></vehicle>
	<vehicle id="148" depart="1838"><route edges="EdgeN22 Edge21 Edge1S1 "/></vehicle>
	<vehicle id="149" depart="1850"><route edges="EdgeE3 Edge32 Edge21 Edge1W "/></vehicle>
	<vehicle id="150" depart="1854"><route edges="EdgeW1 Edge12 Edge23 Edge3E "/></vehicle>
	<vehicle id="151" depart="1855"><route edges="EdgeN22 Edge21 Edge1W "/></vehicle>
	<vehicle id="152" depart="1859"><route edges="EdgeN22 Edge2S2"/></vehicle>
	<vehicle id="153" depart="1860"><route edges="EdgeS11 Edge1N1"/></vehicle>
	<vehicle id="154" depart="1865"><route edges="EdgeE3 Edge3N3"/></vehicle>
	<vehicle id="155" depart="1870"><route edges="EdgeN11 Edge12 Edge2S2 "/></vehicle>
	<vehicle id="156" depart="1870"><route edges="EdgeN22 Edge23 Edge3E "/></vehicle>
	<vehicle id="157" depart="1874"><route edges="EdgeW1 Edge12 Edge23 Edge3E "/></vehicle>
	<vehicle id="158" depart="1875"><route edges="EdgeW1 Edge12 Edge23 Edge3E "/></vehicle>
	<vehicle id="159" depart="1881"><route edges="EdgeW1 Edge12 Edge23 Edge3E "/></vehicle>
	<vehicle id="160" depart="1882"><route edges="EdgeS11 Edge12 Edge23 Edge3E "/></vehicle>
	<vehicle id="161" depart="1897"><route edges="EdgeE3 Edge32 Edge21 Edge1W "/></vehicle>
	<vehicle id="162" depart="1899"><route edges="EdgeE3 Edge32 Edge2S2 "/></vehicle>
	<vehicle id="163" depart="1908"><route edges="EdgeE3 Edge32 Edge21 Edge1W "/></vehicle>
	<vehicle id="164" depart="1910"><route edges="EdgeS11 Edge12 Edge23 Edge3E "/></vehicle>
	<vehicle id="165" depart="1919"><route edges="EdgeN11 Edge12 Edge23 Edge3N3 "/></vehicle>
	<vehicle id="166" depart="1920"><route edges="EdgeW1 Edge12 Edge23 Edge3E "/></vehicle>
	<vehicle id="167" depart="1920"><route edges="EdgeW1 Edge12 Edge2N2 "/></vehicle>
	<vehicle id="168" depart="1920"><route edges="EdgeE3 Edge32 Edge2S2 "/></vehicle>
	<vehicle id="169" depart="1923"><route edges="EdgeS22 Edge2N2"/></vehicle>
	<vehicle id="170" depart="1931"><route edges="EdgeW1 Edge12 Edge23 Edge3E "/></vehicle>
	<vehicle id="171" depart="1931"><route edges="EdgeS11 Edge12 Edge23 Edge3E "/></vehicle>
	<vehicle id="172" depart="1947"><route edges="EdgeW1 Edge12 Edge23 Edge3E "/></vehicle>
	<vehicle id="173" depart="1950"><route edges="EdgeE3 Edge32 Edge2N2 "/></vehicle>
	<vehicle id="174" depart="1951"><route edges="EdgeW1 Edge12 Edge23 Edge3E "/></vehicle>
	<vehicle id="175" depart="1953"><route edges="EdgeW1 Edge12 Edge23 Edge3E "/></vehicle>
	<vehicle id="176" depart="1960"><route edges="EdgeS11 Edge1N1"/></vehicle>
	<vehicle id="177" depart="1975"><route edges="EdgeW1 Edge12 Edge2S2 "/></vehicle>
	<vehicle id="178" depart="1975"><route edges="EdgeS11 Edge12 Edge23 Edge3S3 "/></vehicle>
	<vehicle id="179" depart="1975"><route edges="EdgeS33 Edge32 Edge2N2 "/></vehicle>
	<vehicle id="180" depart="1975"><route edges="EdgeE3 Edge32 Edge21 Edge1W "/></vehicle>
	<vehicle id="181" depart="1977"><route edges="EdgeE3 Edge3S3"/></vehicle>
	<vehicle id="182" depart="1981"><route edges="EdgeN11 Edge1W"/></vehicle>
	<vehicle id="183" depart="1986"><route edges="EdgeN22 Edge21 Edge1S1 "/></vehicle>
	<vehicle id="184" depart="1988"><route edges="EdgeS11 Edge1W"/></vehicle>
	<vehicle id="185" depart="1989"><route edges="EdgeN11 Edge12 Edge2S2 "/></vehicle>
	<vehicle id="186" depart="1990"><route edges="EdgeN11 Edge12 Edge23 Edge3S3 "/></vehicle>
	<vehicle id="187" depart="1992"><route edges="EdgeS11 Edge12 Edge23 Edge3S3 "/></vehicle>
	<vehicle id="188" depart="1999"><route edges="EdgeS33 Edge32 Edge21 Edge1S1 "/></vehicle>
	<vehicle id="189" depart="2004"><route edges="EdgeN22 Edge21 Edge1S1 "/></vehicle>
	<vehicle id="190" depart="2005"><route edges="EdgeS33 Edge32 Edge2N2 "/></vehicle>
	<vehicle id="191" depart="2016"><route edges="EdgeS33 Edge3E"/></vehicle>
	<vehicle id="192" depart="2016"><route edges="EdgeS11 Edge12 Edge2N2 "/></vehicle>
	<vehicle id="193" depart="2016"><route edges="EdgeN11 Edge12 Edge2S2 "/></vehicle>
	<vehicle id="194" depart="2019"><route edges="EdgeN22 Edge23 Edge3E "/></vehicle>
	<vehicle id="195" depart="2021"><route edges="EdgeN22 Edge21 Edge1W "/></vehicle>
	<vehicle id="196" depart="2022"><route edges="EdgeW1 Edge12 Edge2S2 "/></vehicle>
	<vehicle id="197" depart="2027"><route edges="EdgeE3 Edge32 Edge21 Edge1S1 "/></vehicle>
	<vehicle id="198" depart="2030"><route edges="EdgeS11 Edge12 Edge2S2 "/></vehicle>
	<vehicle id="199" depart="2033"><route edges="EdgeS11 Edge12 Edge2S2 "/></vehicle>
	<vehicle id="200" depart="2036"><route edges="EdgeN22 Edge21 Edge1W "/></vehicle>
	<vehicle id="201" depart="2041"><route edges="EdgeE3 Edge32 Edge21 Edge1W "/></vehicle>
	<vehicle id="202" depart="2043"><route edges="EdgeS22 Edge2N2"/></vehicle>
	<vehicle id="203" depart="2049"><route edges="EdgeN33 Edge3S3"/></vehicle>
	<vehicle id="204" depart="2058"><route edges="EdgeE3 Edge32 Edge21 Edge1W "/></vehicle>
	<vehicle id="205" depart="2065"><route edges="EdgeN22 Edge23 Edge3E "/></vehicle>
	<vehicle id="206" depart="2066"><route edges="EdgeW1 Edge12 Edge23 Edge3E "/></vehicle>
	<vehicle id="207" depart="2067"><route edges="EdgeS33 Edge32 Edge2S2 "/></vehicle>
	<vehicle id="208" depart="2076"><route edges="EdgeS22 Edge21 Edge1N1 "/></vehicle>
	<vehicle id="209" depart="2076"><route edges="EdgeN22 Edge21 Edge1S1 "/></vehicle>
	<vehicle id="210" depart="2077"><route edges="EdgeS33 Edge3E"/></vehicle>
	<vehicle id="211" depart="2077"><route edges="EdgeW1 Edge12 Edge23 Edge3S3 "/></vehicle>
	<vehicle id="212" depart="2080"><route edges="EdgeS33 Edge32 Edge21 Edge1S1 "/></vehicle>
	<vehicle id="213" depart="2081"><route edges="EdgeN33 Edge32 Edge21 Edge1N1 "/></vehicle>
	<vehicle id="214" depart="2092"><route edges="EdgeS11 Edge12 Edge23 Edge3N3 "/></vehicle>
	<vehicle id="215" depart="2102"><route edges="EdgeS11 Edge12 Edge23 Edge3S3 "/></vehicle>
	<vehicle id="216" depart="2106"><route edges="EdgeS33 Edge3E"/></vehicle>
	<vehicle id="217" depart="2110"><route edges="EdgeS11 Edge12 Edge2N2 "/></vehicle>
	<vehicle id="218" depart="2111"><route edges="EdgeN11 Edge12 Edge23 Edge3S3 "/></vehicle>
	<vehicle id="219" depart="2114"><route edges="EdgeE3 Edge32 Edge21 Edge1N1 "/></vehicle>
	<vehicle id="220" depart="2117"><route edges="EdgeS11 Edge12 Edge2S2 "/></vehicle>
	<vehicle id="221" depart="2120"><route edges="EdgeN33 Edge32 Edge21 Edge1W "/></vehicle>
	<vehicle id="222" depart="2121"><route edges="EdgeN33 Edge32 Edge21 Edge1W "/></vehicle>
	<vehicle id="223" depart="2136"><route edges="EdgeE3 Edge32 Edge21 Edge1W "/></vehicle>
	<vehicle id="224" depart="2141"><route edges="EdgeE3 Edge32 Edge21 Edge1S1 "/></vehicle>
	<vehicle id="225" depart="2147"><route edges="EdgeS22 Edge21 Edge1W "/></vehicle>
	<vehicle id="226" depart="2150"><route edges="EdgeN11 Edge12 Edge23 Edge3S3 "/></vehicle>
	<vehicle id="227" depart="2150"><route edges="EdgeE3 Edge32 Edge21 Edge1W "/></vehicle>
	<vehicle id="228" depart="2151"><route edges="EdgeN11 Edge12 Edge23 Edge3E "/></vehicle>
	<vehicle id="229" depart="2154"><route edges="EdgeS22 Edge21 Edge1S1 "/></vehicle>
	<vehicle id="230" depart="2159"><route edges="EdgeS33 Edge32 Edge21 Edge1W "/></vehicle>
	<vehicle id="231" depart="2160"><route edges="EdgeS33 Edge32 Edge2N2 "/></vehicle>
	<vehicle id="232" depart="2164"><route edges="EdgeS33 Edge32 Edge21 Edge1N1 "/></vehicle>
	<vehicle id="233" depart="2164"><route edges="EdgeS33 Edge32 Edge21 Edge1N1 "/></vehicle>
	<vehicle id="234" depart="2167"><route edges="EdgeS33 Edge32 Edge21 Edge1W "/></vehicle>
	<vehicle id="235" depart="2171"><route edges="EdgeS33 Edge32 Edge2N2 "/></vehicle>
	<vehicle id="236" depart="2171"><route edges="EdgeS22 Edge23 Edge3E "/></vehicle>
	<vehicle id="237" depart="2177"><route edges="EdgeS11 Edge1N1"/></vehicle>
	<vehicle id="238" depart="2191"><route edges="EdgeN11 Edge1W"/></vehicle>
	<vehicle id="239" depart="2192"><route edges="EdgeE3 Edge3N3"/></vehicle>
	<vehicle id="240" depart="2194"><route edges="EdgeE3 Edge32 Edge2N2 "/></vehicle>
	<vehicle id="241" depart="2198"><route edges="EdgeN22 Edge21 Edge1W "/></vehicle>
	<vehicle id="242" depart="2200"><route edges="EdgeN33 Edge3S3"/></vehicle>
	<vehicle id="243" depart="2205"><route edges="EdgeN33 Edge32 Edge21 Edge1N1 "/></vehicle>
	<vehicle id="244" depart="2206"><route edges="EdgeE3 Edge32 Edge21 Edge1W "/></vehicle>
	<vehicle id="245" depart="2211"><route edges="EdgeN22 Edge2S2"/></vehicle>
	<vehicle id="246" depart="2223"><route edges="EdgeS33 Edge3E"/></vehicle>
	<vehicle id="247" depart="2228"><route edges="EdgeS11 Edge12 Edge23 Edge3E "/></vehicle>
	<vehicle id="248" depart="2229"><route edges="EdgeN22 Edge23 Edge3N3 "/></vehicle>
	<vehicle id="249" depart="2229"><route edges="EdgeS22 Edge23 Edge3N3 "/></vehicle>
	<vehicle id="250" depart="2234"><route edges="EdgeE3 Edge32 Edge21 Edge1W "/></vehicle>
	<vehicle id="251" depart="2240"><route edges="EdgeE3 Edge32 Edge2N2 "/></vehicle>
	<vehicle id="252" depart="2244"><route edges="EdgeE3 Edge32 Edge2S2 "/></vehicle>
	<vehicle id="253" depart="2244"><route edges="EdgeS33 Edge32 Edge21 Edge1S1 "/></vehicle>
	<vehicle id="254" depart="2252"><route edges="EdgeN11 Edge12 Edge23 Edge3S3 "/></vehicle>
	<vehicle id="255" depart="2259"><route edges="EdgeE3 Edge32 Edge21 Edge1W "/></vehicle>
	<vehicle id="256" depart="2266"><route edges="EdgeS11 Edge12 Edge23 Edge3S3 "/></vehicle>
	<vehicle id="257" depart="2275"><route edges="EdgeN33 Edge32 Edge2N2 "/></vehicle>
	<vehicle id="258" depart="2275"><route edges="EdgeS33 Edge3E"/></vehicle>
	<vehicle id="259" depart="2283"><route edges="EdgeS22 Edge2N2"/></vehicle>
	<vehicle id="260" depart="2287"><route edges="EdgeW1 Edge12 Edge23 Edge3E "/></vehicle>
	<vehicle id="261" depart="2291"><route edges="EdgeS22 Edge23 Edge3E "/></vehicle>
	<vehicle id="262" depart="2301"><route edges="EdgeN33 Edge3E"/></vehicle>
	<vehicle id="263" depart="2303"><route edges="EdgeE3 Edge32 Edge21 Edge1S1 "/></vehicle>
	<vehicle id="264" depart="2304"><route edges="EdgeE3 Edge3N3"/></vehicle>
	<vehicle id="265" depart="2307"><route edges="EdgeW1 Edge12 Edge23 Edge3E "/></vehicle>
	<vehicle id="266" depart="2308"><route edges="EdgeE3 Edge3S3"/></vehicle>
	<vehicle id="267" depart="2309"><route edges="EdgeW1 Edge12 Edge23 Edge3E "/></vehicle>
	<vehicle id="268" depart="2310"><route edges="EdgeE3 Edge32 Edge21 Edge1S1 "/></vehicle>
	<vehicle id="269" depart="2313"><route edges="EdgeE3 Edge32 Edge2S2 "/></vehicle>
	<vehicle id="270" depart="2314"><route edges="EdgeS22 Edge21 Edge1W "/></vehicle>
	<vehicle id="271" depart="2314"><route edges="EdgeN33 Edge32 Edge2N2 "/></vehicle>
	<vehicle id="272" depart="2317"><route edges="EdgeS11 Edge12 Edge23 Edge3S3 "/></vehicle>
	<vehicle id="273" depart="2326"><route edges="EdgeS33 Edge32 Edge21 Edge1W "/></vehicle>
	<vehicle id="274" depart="2332"><route edges="EdgeS22 Edge21 Edge1S1 "/></vehicle>
	<vehicle id="275" depart="2336"><route edges="EdgeN33 Edge32 Edge21 Edge1S1 "/></vehicle>
	<vehicle id="276" depart="2340"><route edges="EdgeS33 Edge32 Edge21 Edge1W "/></vehicle>
	<vehicle id="277" depart="2344"><route edges="EdgeN11 Edge12 Edge2N2 "/></vehicle>
	<vehicle id="278" depart="2352"><route edges="EdgeS33 Edge3N3"/></vehicle>
	<vehicle id="279" depart="2353"><route edges="EdgeN11 Edge12 Edge2N2 "/></vehicle>
	<vehicle id="280" depart="2355"><route edges="EdgeE3 Edge3N3"/></vehicle>
	<vehicle id="281" depart="2356"><route edges="EdgeN11 Edge1S1"/></vehicle>
	<vehicle id="282" depart="2357"><route edges="EdgeW1 Edge12 Edge23 Edge3E "/></vehicle>
	<vehicle id="283" depart="2360"><route edges="EdgeN22 Edge23 Edge3N3 "/></vehicle>
	<vehicle id="284" depart="2360"><route edges="EdgeW1 Edge12 Edge23 Edge3E "/></vehicle>
	<vehicle id="285" depart="2362"><route edges="EdgeW1 Edge12 Edge23 Edge3E "/></vehicle>
	<vehicle id="286" depart="2366"><route edges="EdgeN22 Edge23 Edge3E "/></vehicle>
	<vehicle id="287" depart="2370"><route edges="EdgeS11 Edge12 Edge23 Edge3S3 "/></vehicle>
	<vehicle id="288" depart="2373"><route edges="EdgeW1 Edge12 Edge23 Edge3E "/></vehicle>
	<vehicle id="289" depart="2377"><route edges="EdgeS33 Edge32 Edge2N2 "/></vehicle>
	<vehicle id="290" depart="2378"><route edges="EdgeN22 Edge2S2"/></vehicle>
	<vehicle id="291" depart="2381"><route edges="EdgeS11 Edge1N1"/></vehicle>
	<vehicle id="292" depart="2389"><route edges="EdgeS22 Edge21 Edge1S1 "/></vehicle>
	<vehicle id="293" depart="2389"><route edges="EdgeN11 Edge1S1"/></vehicle>
	<vehicle id="294" depart="2390"><route edges="EdgeS33 Edge32 Edge21 Edge1S1 "/></vehicle>
	<vehicle id="295" depart="2391"><route edges="EdgeW1 Edge12 Edge23 Edge3S3 "/></vehicle>
	<vehicle id="296" depart="2393"><route edges="EdgeN22 Edge21 Edge1S1 "/></vehicle>
	<vehicle id="297" depart="2393"><route edges="EdgeS22 Edge23 Edge3E "/></vehicle>
	<vehicle id="298" depart="2402"><route edges="EdgeE3 Edge32 Edge21 Edge1W "/></vehicle>
	<vehicle id="299" depart="2405"><route edges="EdgeN11 Edge1S1"/></vehicle>
	<vehicle id="300" depart="2405"><route edges="EdgeS11 Edge12 Edge23 Edge3E "/></vehicle>
	<vehicle id="301" depart="2407"><route edges="EdgeN22 Edge21 Edge1W "/></vehicle>
	<vehicle id="302" depart="2407"><route edges="EdgeE3 Edge32 Edge21 Edge1W "/></vehicle>
	<vehicle id="303" depart="2409"><route edges="EdgeN33 Edge32 Edge21 Edge1W "/></vehicle>
	<vehicle id="304" depart="2410"><route edges="EdgeS33 Edge32 Edge21 Edge1W "/></vehicle>
	<vehicle id="305" depart="2411"><route edges="EdgeS22 Edge21 Edge1W "/></vehicle>
	<vehicle id="306" depart="2414"><route edges="EdgeN11 Edge12 Edge23 Edge3N3 "/></vehicle>
	<vehicle id="307" depart="2414"><route edges="EdgeS11 Edge12 Edge2N2 "/></vehicle>
	<vehicle id="308" depart="2425"><route edges="EdgeS33 Edge3N3"/></vehicle>
	<vehicle id="309" depart="2429"><route edges="EdgeE3 Edge32 Edge21 Edge1W "/></vehicle>
	<vehicle id="310" depart="2432"><route edges="EdgeS11 Edge12 Edge23 Edge3E "/></vehicle>
	<vehicle id="311" depart="2444"><route edges="EdgeS22 Edge2N2"/></vehicle>
	<vehicle id="312" depart="2447"><route edges="EdgeE3 Edge32 Edge21 Edge1S1 "/></vehicle>
	<vehicle id="313" depart="2450"><route edges="EdgeN22 Edge23 Edge3E "/></vehicle>
	<vehicle id="314" depart="2450"><route edges="EdgeE3 Edge32 Edge21 Edge1W "/></vehicle>
	<vehicle id="315" depart="2460"><route edges="EdgeS22 Edge23 Edge3S3 "/></vehicle>
	<vehicle id="316" depart="2465"><route edges="EdgeS33 Edge32 Edge21 Edge1S1 "/></vehicle>
	<vehicle id="317" depart="2465"><route edges="EdgeS22 Edge21 Edge1N1 "/></vehicle>
	<vehicle id="318" depart="2469"><route edges="EdgeE3 Edge32 Edge21 Edge1S1 "/></vehicle>
	<vehicle id="319" depart="2471"><route edges="EdgeE3 Edge32 Edge21 Edge1W "/></vehicle>
	<vehicle id="320" depart="2473"><route edges="EdgeE3 Edge3S3"/></vehicle>
	<vehicle id="321" depart="2475"><route edges="EdgeN33 Edge32 Edge2S2 "/></vehicle>
	<vehicle id="322" depart="2480"><route edges="EdgeN33 Edge32 Edge21 Edge1W "/></vehicle>
	<vehicle id="323" depart="2480"><route edges="EdgeN11 Edge12 Edge2N2 "/></vehicle>
	<vehicle id="324" depart="2484"><route edges="EdgeW1 Edge12 Edge23 Edge3E "/></vehicle>
	<vehicle id="325" depart="2487"><route edges="EdgeN22 Edge21 Edge1S1 "/></vehicle>
	<vehicle id="326" depart="2492"><route edges="EdgeW1 Edge12 Edge2S2 "/></vehicle>
	<vehicle id="327" depart="2493"><route edges="EdgeS33 Edge32 Edge2S2 "/></vehicle>
	<vehicle id="328" depart="2500"><route edges="EdgeS33 Edge32 Edge21 Edge1N1 "/></vehicle>
	<vehicle id="329" depart="2504"><route edges="EdgeS33 Edge32 Edge21 Edge1S1 "/></vehicle>
	<vehicle id="330" depart="2510"><route edges="EdgeE3 Edge3S3"/></vehicle>
	<vehicle id="331" depart="2511"><route edges="EdgeS11 Edge12 Edge2N2 "/></vehicle>
	<vehicle id="332" depart="2516"><route edges="EdgeW1 Edge12 Edge23 Edge3E "/></vehicle>
	<vehicle id="333" depart="2517"><route edges="EdgeW1 Edge12 Edge23 Edge3E "/></vehicle>
	<vehicle id="334" depart="2518"><route edges="EdgeW1 Edge12 Edge23 Edge3E "/></vehicle>
	<vehicle id="335" depart="2519"><route edges="EdgeN11 Edge12 Edge2N2 "/></vehicle>
	<vehicle id="336" depart="2521"><route edges="EdgeE3 Edge32 Edge21 Edge1S1 "/></vehicle>
	<vehicle id="337" depart="2525"><route edges="EdgeN22 Edge23 Edge3E "/></vehicle>
	<vehicle id="338" depart="2527"><route edges="EdgeN33 Edge32 Edge21 Edge1S1 "/></vehicle>
	<vehicle id="339" depart="2530"><route edges="EdgeW1 Edge12 Edge23 Edge3S3 "/></vehicle>
	<vehicle id="340" depart="2532"><route edges="EdgeS11 Edge1N1"/></vehicle>
	<vehicle id="341" depart="2533"><route edges="EdgeW1 Edge12 Edge23 Edge3E "/></vehicle>
	<vehicle id="342" depart="2535"><route edges="EdgeN22 Edge23 Edge3S3 "/></vehicle>
	<vehicle id="343" depart="2535"><route edges="EdgeE3 Edge32 Edge21 Edge1W "/></vehicle>
	<vehicle id="344" depart="2539"><route edges="EdgeN11 Edge12 Edge23 Edge3N3 "/></vehicle>
	<vehicle id="345" depart="2541"><route edges="EdgeN11 Edge12 Edge23 Edge3N3 "/></vehicle>
	<vehicle id="346" depart="2542"><route edges="EdgeE3 Edge32 Edge21 Edge1W "/></vehicle>
	<vehicle id="347" depart="2550"><route edges="EdgeS11 Edge1W"/></vehicle>
	<vehicle id="348" depart="2555"><route edges="EdgeN33 Edge32 Edge2N2 "/></vehicle>
	<vehicle id="349" depart="2555"><route edges="EdgeN11 Edge12 Edge2N2 "/></vehicle>
	<vehicle id="350" depart="2556"><route edges="EdgeS22 Edge21 Edge1W "/></vehicle>
	<vehicle id="351" depart="2560"><route edges="EdgeS22 Edge21 Edge1N1 "/></vehicle>
	<vehicle id="352" depart="2562"><route edges="EdgeW1 Edge12 Edge23 Edge3E "/></vehicle>
	<vehicle id="353" depart="2565"><route edges="EdgeN11 Edge12 Edge2S2 "/></vehicle>