<?xml version="1.0" encoding="utf-8"?>
<configuration xmlns:xsi="http://www.w3.org/2001/XMLSchema-instance" xsi:noNamespaceSchemaLocation="http://sumo.dlr.de/xsd/sumoConfiguration.xsd">

	<input>
		<net-file value="test_multiple.net.xml"/>
		<route-files value="flow_test.rou.xml"/>
	</input>
	<time>
		<begin value="0"/>
		<end value="7200"/>
	</time>
	<processing>
		<time-to-teleport value="-1"/>
		<waiting-time-memory value="600"/>
	</processing>

    <report>
        <no-step-log value="true"/>
    </report>


</configuration>
