<?xml version="1.0" encoding="UTF-8"?>
<routes xmlns:xsi="http://www.w3.org/2001/XMLSchema-instance" xsi:noNamespaceSchemaLocation="http://sumo.dlr.de/xsd/routes_file.xsd">
	<vehicle id="0" depart="3"><route edges="EdgeN2 EdgeE1"/></vehicle>
	<vehicle id="1" depart="8"><route edges="EdgeS2 EdgeW1"/></vehicle>
	<vehicle id="2" depart="13"><route edges="EdgeW2 EdgeS1"/></vehicle>
	<vehicle id="3" depart="17"><route edges="EdgeS2 EdgeW1"/></vehicle>
	<vehicle id="4" depart="24"><route edges="EdgeS2 EdgeN1"/></vehicle>
	<vehicle id="5" depart="26"><route edges="EdgeN2 EdgeE1"/></vehicle>
	<vehicle id="6" depart="35"><route edges="EdgeW2 EdgeN1"/></vehicle>
	<vehicle id="7" depart="37"><route edges="EdgeN2 EdgeE1"/></vehicle>
	<vehicle id="8" depart="48"><route edges="EdgeS2 EdgeN1"/></vehicle>
	<vehicle id="9" depart="49"><route edges="EdgeN2 EdgeS1"/></vehicle>
	<vehicle id="10" depart="51"><route edges="EdgeW2 EdgeN1"/></vehicle>
	<vehicle id="11" depart="51"><route edges="EdgeS2 EdgeN1"/></vehicle>
	<vehicle id="12" depart="51"><route edges="EdgeS2 EdgeW1"/></vehicle>
	<vehicle id="13" depart="54"><route edges="EdgeS2 EdgeN1"/></vehicle>
	<vehicle id="14" depart="67"><route edges="EdgeN2 EdgeS1"/></vehicle>
	<vehicle id="15" depart="100"><route edges="EdgeW2 EdgeE1"/></vehicle>
	<vehicle id="16" depart="113"><route edges="EdgeE2 EdgeW1"/></vehicle>
	<vehicle id="17" depart="114"><route edges="EdgeS2 EdgeN1"/></vehicle>
	<vehicle id="18" depart="149"><route edges="EdgeW2 EdgeN1"/></vehicle>
	<vehicle id="19" depart="151"><route edges="EdgeE2 EdgeN1"/></vehicle>
	<vehicle id="20" depart="151"><route edges="EdgeN2 EdgeW1"/></vehicle>
	<vehicle id="21" depart="160"><route edges="EdgeE2 EdgeW1"/></vehicle>
	<vehicle id="22" depart="169"><route edges="EdgeN2 EdgeW1"/></vehicle>
	<vehicle id="23" depart="179"><route edges="EdgeN2 EdgeW1"/></vehicle>
	<vehicle id="24" depart="179"><route edges="EdgeW2 EdgeN1"/></vehicle>
	<vehicle id="25" depart="183"><route edges="EdgeN2 EdgeW1"/></vehicle>
	<vehicle id="26" depart="188"><route edges="EdgeE2 EdgeS1"/></vehicle>
	<vehicle id="27" depart="198"><route edges="EdgeE2 EdgeS1"/></vehicle>
	<vehicle id="28" depart="201"><route edges="EdgeE2 EdgeW1"/></vehicle>
	<vehicle id="29" depart="202"><route edges="EdgeN2 EdgeS1"/></vehicle>
	<vehicle id="30" depart="204"><route edges="EdgeS2 EdgeN1"/></vehicle>
	<vehicle id="31" depart="214"><route edges="EdgeS2 EdgeW1"/></vehicle>
	<vehicle id="32" depart="215"><route edges="EdgeE2 EdgeN1"/></vehicle>
	<vehicle id="33" depart="218"><route edges="EdgeN2 EdgeS1"/></vehicle>
	<vehicle id="34" depart="225"><route edges="EdgeW2 EdgeS1"/></vehicle>
	<vehicle id="35" depart="225"><route edges="EdgeE2 EdgeW1"/></vehicle>
	<vehicle id="36" depart="228"><route edges="EdgeN2 EdgeS1"/></vehicle>
	<vehicle id="37" depart="229"><route edges="EdgeE2 EdgeS1"/></vehicle>
	<vehicle id="38" depart="234"><route edges="EdgeE2 EdgeS1"/></vehicle>
	<vehicle id="39" depart="247"><route edges="EdgeS2 EdgeN1"/></vehicle>
	<vehicle id="40" depart="259"><route edges="EdgeS2 EdgeE1"/></vehicle>
	<vehicle id="41" depart="266"><route edges="EdgeW2 EdgeS1"/></vehicle>
	<vehicle id="42" depart="267"><route edges="EdgeW2 EdgeE1"/></vehicle>
	<vehicle id="43" depart="280"><route edges="EdgeS2 EdgeN1"/></vehicle>
	<vehicle id="44" depart="284"><route edges="EdgeN2 EdgeS1"/></vehicle>
	<vehicle id="45" depart="298"><route edges="EdgeE2 EdgeW1"/></vehicle>
	<vehicle id="46" depart="305"><route edges="EdgeW2 EdgeS1"/></vehicle>
	<vehicle id="47" depart="306"><route edges="EdgeE2 EdgeW1"/></vehicle>
	<vehicle id="48" depart="313"><route edges="EdgeS2 EdgeW1"/></vehicle>
	<vehicle id="49" depart="318"><route edges="EdgeW2 EdgeN1"/></vehicle>
	<vehicle id="50" depart="318"><route edges="EdgeS2 EdgeE1"/></vehicle>
	<vehicle id="51" depart="320"><route edges="EdgeE2 EdgeS1"/></vehicle>
	<vehicle id="52" depart="329"><route edges="EdgeS2 EdgeW1"/></vehicle>
	<vehicle id="53" depart="330"><route edges="EdgeW2 EdgeN1"/></vehicle>
	<vehicle id="54" depart="332"><route edges="EdgeE2 EdgeW1"/></vehicle>
	<vehicle id="55" depart="333"><route edges="EdgeE2 EdgeN1"/></vehicle>
	<vehicle id="56" depart="340"><route edges="EdgeE2 EdgeN1"/></vehicle>
	<vehicle id="57" depart="345"><route edges="EdgeS2 EdgeE1"/></vehicle>
	<vehicle id="58" depart="364"><route edges="EdgeW2 EdgeE1"/></vehicle>
	<vehicle id="59" depart="376"><route edges="EdgeN2 EdgeS1"/></vehicle>
	<vehicle id="60" depart="381"><route edges="EdgeN2 EdgeW1"/></vehicle>
	<vehicle id="61" depart="401"><route edges="EdgeS2 EdgeE1"/></vehicle>
	<vehicle id="62" depart="420"><route edges="EdgeE2 EdgeW1"/></vehicle>
	<vehicle id="63" depart="434"><route edges="EdgeS2 EdgeN1"/></vehicle>
	<vehicle id="64" depart="454"><route edges="EdgeS2 EdgeE1"/></vehicle>
	<vehicle id="65" depart="462"><route edges="EdgeW2 EdgeN1"/></vehicle>
	<vehicle id="66" depart="465"><route edges="EdgeE2 EdgeN1"/></vehicle>
	<vehicle id="67" depart="468"><route edges="EdgeW2 EdgeN1"/></vehicle>
	<vehicle id="68" depart="469"><route edges="EdgeW2 EdgeE1"/></vehicle>
	<vehicle id="69" depart="472"><route edges="EdgeW2 EdgeE1"/></vehicle>
	<vehicle id="70" depart="472"><route edges="EdgeE2 EdgeW1"/></vehicle>
	<vehicle id="71" depart="478"><route edges="EdgeW2 EdgeE1"/></vehicle>
	<vehicle id="72" depart="479"><route edges="EdgeN2 EdgeW1"/></vehicle>
	<vehicle id="73" depart="486"><route edges="EdgeW2 EdgeN1"/></vehicle>
	<vehicle id="74" depart="486"><route edges="EdgeS2 EdgeN1"/></vehicle>
	<vehicle id="75" depart="498"><route edges="EdgeS2 EdgeE1"/></vehicle>
	<vehicle id="76" depart="498"><route edges="EdgeW2 EdgeE1"/></vehicle>
	<vehicle id="77" depart="502"><route edges="EdgeW2 EdgeN1"/></vehicle>
	<vehicle id="78" depart="508"><route edges="EdgeN2 EdgeS1"/></vehicle>
	<vehicle id="79" depart="511"><route edges="EdgeE2 EdgeS1"/></vehicle>
	<vehicle id="80" depart="513"><route edges="EdgeW2 EdgeE1"/></vehicle>
	<vehicle id="81" depart="513"><route edges="EdgeE2 EdgeS1"/></vehicle>
	<vehicle id="82" depart="515"><route edges="EdgeN2 EdgeS1"/></vehicle>
	<vehicle id="83" depart="515"><route edges="EdgeW2 EdgeN1"/></vehicle>
	<vehicle id="84" depart="521"><route edges="EdgeS2 EdgeW1"/></vehicle>
	<vehicle id="85" depart="532"><route edges="EdgeE2 EdgeW1"/></vehicle>
	<vehicle id="86" depart="541"><route edges="EdgeE2 EdgeS1"/></vehicle>
	<vehicle id="87" depart="542"><route edges="EdgeS2 EdgeW1"/></vehicle>
	<vehicle id="88" depart="559"><route edges="EdgeN2 EdgeE1"/></vehicle>
	<vehicle id="89" depart="560"><route edges="EdgeN2 EdgeE1"/></vehicle>
	<vehicle id="90" depart="569"><route edges="EdgeN2 EdgeE1"/></vehicle>
	<vehicle id="91" depart="569"><route edges="EdgeN2 EdgeS1"/></vehicle>
	<vehicle id="92" depart="573"><route edges="EdgeE2 EdgeN1"/></vehicle>
	<vehicle id="93" depart="577"><route edges="EdgeS2 EdgeW1"/></vehicle>
	<vehicle id="94" depart="577"><route edges="EdgeE2 EdgeN1"/></vehicle>
	<vehicle id="95" depart="580"><route edges="EdgeE2 EdgeW1"/></vehicle>
	<vehicle id="96" depart="588"><route edges="EdgeN2 EdgeW1"/></vehicle>
	<vehicle id="97" depart="593"><route edges="EdgeW2 EdgeE1"/></vehicle>
	<vehicle id="98" depart="608"><route edges="EdgeE2 EdgeS1"/></vehicle>
	<vehicle id="99" depart="609"><route edges="EdgeW2 EdgeN1"/></vehicle>
	<vehicle id="100" depart="615"><route edges="EdgeE2 EdgeW1"/></vehicle>
	<vehicle id="101" depart="626"><route edges="EdgeN2 EdgeW1"/></vehicle>
	<vehicle id="102" depart="627"><route edges="EdgeW2 EdgeE1"/></vehicle>
	<vehicle id="103" depart="632"><route edges="EdgeN2 EdgeW1"/></vehicle>
	<vehicle id="104" depart="637"><route edges="EdgeS2 EdgeW1"/></vehicle>
	<vehicle id="105" depart="641"><route edges="EdgeN2 EdgeS1"/></vehicle>
	<vehicle id="106" depart="641"><route edges="EdgeE2 EdgeN1"/></vehicle>
	<vehicle id="107" depart="643"><route edges="EdgeS2 EdgeN1"/></vehicle>
	<vehicle id="108" depart="644"><route edges="EdgeE2 EdgeS1"/></vehicle>
	<vehicle id="109" depart="654"><route edges="EdgeW2 EdgeS1"/></vehicle>
	<vehicle id="110" depart="659"><route edges="EdgeN2 EdgeW1"/></vehicle>
	<vehicle id="111" depart="668"><route edges="EdgeS2 EdgeN1"/></vehicle>
	<vehicle id="112" depart="668"><route edges="EdgeN2 EdgeS1"/></vehicle>
	<vehicle id="113" depart="676"><route edges="EdgeE2 EdgeW1"/></vehicle>
	<vehicle id="114" depart="684"><route edges="EdgeW2 EdgeS1"/></vehicle>
	<vehicle id="115" depart="691"><route edges="EdgeN2 EdgeW1"/></vehicle>
	<vehicle id="116" depart="700"><route edges="EdgeN2 EdgeS1"/></vehicle>
	<vehicle id="117" depart="710"><route edges="EdgeW2 EdgeN1"/></vehicle>
	<vehicle id="118" depart="720"><route edges="EdgeN2 EdgeW1"/></vehicle>
	<vehicle id="119" depart="724"><route edges="EdgeN2 EdgeS1"/></vehicle>
	<vehicle id="120" depart="727"><route edges="EdgeE2 EdgeW1"/></vehicle>
	<vehicle id="121" depart="733"><route edges="EdgeE2 EdgeW1"/></vehicle>
	<vehicle id="122" depart="734"><route edges="EdgeW2 EdgeE1"/></vehicle>
	<vehicle id="123" depart="737"><route edges="EdgeS2 EdgeE1"/></vehicle>
	<vehicle id="124" depart="743"><route edges="EdgeE2 EdgeW1"/></vehicle>
	<vehicle id="125" depart="743"><route edges="EdgeS2 EdgeE1"/></vehicle>
	<vehicle id="126" depart="744"><route edges="EdgeE2 EdgeS1"/></vehicle>
	<vehicle id="127" depart="753"><route edges="EdgeE2 EdgeW1"/></vehicle>
	<vehicle id="128" depart="759"><route edges="EdgeE2 EdgeS1"/></vehicle>
	<vehicle id="129" depart="765"><route edges="EdgeS2 EdgeN1"/></vehicle>
	<vehicle id="130" depart="768"><route edges="EdgeN2 EdgeW1"/></vehicle>
	<vehicle id="131" depart="775"><route edges="EdgeS2 EdgeW1"/></vehicle>
	<vehicle id="132" depart="788"><route edges="EdgeS2 EdgeW1"/></vehicle>
	<vehicle id="133" depart="790"><route edges="EdgeW2 EdgeE1"/></vehicle>
	<vehicle id="134" depart="795"><route edges="EdgeN2 EdgeS1"/></vehicle>
	<vehicle id="135" depart="805"><route edges="EdgeW2 EdgeN1"/></vehicle>
	<vehicle id="136" depart="809"><route edges="EdgeE2 EdgeS1"/></vehicle>
	<vehicle id="137" depart="815"><route edges="EdgeW2 EdgeE1"/></vehicle>
	<vehicle id="138" depart="827"><route edges="EdgeN2 EdgeS1"/></vehicle>
	<vehicle id="139" depart="828"><route edges="EdgeN2 EdgeE1"/></vehicle>
	<vehicle id="140" depart="833"><route edges="EdgeN2 EdgeW1"/></vehicle>
	<vehicle id="141" depart="836"><route edges="EdgeW2 EdgeN1"/></vehicle>
	<vehicle id="142" depart="837"><route edges="EdgeW2 EdgeE1"/></vehicle>
	<vehicle id="143" depart="843"><route edges="EdgeE2 EdgeW1"/></vehicle>
	<vehicle id="144" depart="851"><route edges="EdgeN2 EdgeE1"/></vehicle>
	<vehicle id="145" depart="873"><route edges="EdgeW2 EdgeS1"/></vehicle>
	<vehicle id="146" depart="880"><route edges="EdgeW2 EdgeN1"/></vehicle>
	<vehicle id="147" depart="883"><route edges="EdgeE2 EdgeW1"/></vehicle>
	<vehicle id="148" depart="901"><route edges="EdgeN2 EdgeS1"/></vehicle>
	<vehicle id="149" depart="902"><route edges="EdgeN2 EdgeW1"/></vehicle>
	<vehicle id="150" depart="906"><route edges="EdgeE2 EdgeS1"/></vehicle>
	<vehicle id="151" depart="908"><route edges="EdgeW2 EdgeS1"/></vehicle>
	<vehicle id="152" depart="929"><route edges="EdgeN2 EdgeE1"/></vehicle>
	<vehicle id="153" depart="949"><route edges="EdgeS2 EdgeN1"/></vehicle>
	<vehicle id="154" depart="960"><route edges="EdgeS2 EdgeW1"/></vehicle>
	<vehicle id="155" depart="962"><route edges="EdgeN2 EdgeS1"/></vehicle>
	<vehicle id="156" depart="964"><route edges="EdgeW2 EdgeE1"/></vehicle>
	<vehicle id="157" depart="967"><route edges="EdgeN2 EdgeE1"/></vehicle>
	<vehicle id="158" depart="976"><route edges="EdgeS2 EdgeE1"/></vehicle>
	<vehicle id="159" depart="976"><route edges="EdgeW2 EdgeS1"/></vehicle>
	<vehicle id="160" depart="980"><route edges="EdgeE2 EdgeW1"/></vehicle>
	<vehicle id="161" depart="983"><route edges="EdgeW2 EdgeN1"/></vehicle>
	<vehicle id="162" depart="1008"><route edges="EdgeS2 EdgeN1"/></vehicle>
	<vehicle id="163" depart="1010"><route edges="EdgeE2 EdgeW1"/></vehicle>
	<vehicle id="164" depart="1013"><route edges="EdgeE2 EdgeN1"/></vehicle>
	<vehicle id="165" depart="1016"><route edges="EdgeW2 EdgeE1"/></vehicle>
	<vehicle id="166" depart="1019"><route edges="EdgeE2 EdgeN1"/></vehicle>
	<vehicle id="167" depart="1027"><route edges="EdgeS2 EdgeE1"/></vehicle>
	<vehicle id="168" depart="1033"><route edges="EdgeW2 EdgeS1"/></vehicle>
	<vehicle id="169" depart="1035"><route edges="EdgeE2 EdgeW1"/></vehicle>
	<vehicle id="170" depart="1036"><route edges="EdgeE2 EdgeW1"/></vehicle>
	<vehicle id="171" depart="1038"><route edges="EdgeW2 EdgeN1"/></vehicle>
	<vehicle id="172" depart="1047"><route edges="EdgeE2 EdgeN1"/></vehicle>
	<vehicle id="173" depart="1049"><route edges="EdgeS2 EdgeN1"/></vehicle>
	<vehicle id="174" depart="1052"><route edges="EdgeS2 EdgeN1"/></vehicle>
	<vehicle id="175" depart="1057"><route edges="EdgeW2 EdgeE1"/></vehicle>
	<vehicle id="176" depart="1059"><route edges="EdgeN2 EdgeE1"/></vehicle>
	<vehicle id="177" depart="1060"><route edges="EdgeE2 EdgeS1"/></vehicle>
	<vehicle id="178" depart="1065"><route edges="EdgeN2 EdgeW1"/></vehicle>
	<vehicle id="179" depart="1076"><route edges="EdgeW2 EdgeS1"/></vehicle>
	<vehicle id="180" depart="1078"><route edges="EdgeN2 EdgeE1"/></vehicle>
	<vehicle id="181" depart="1078"><route edges="EdgeN2 EdgeW1"/></vehicle>
	<vehicle id="182" depart="1083"><route edges="EdgeW2 EdgeN1"/></vehicle>
	<vehicle id="183" depart="1096"><route edges="EdgeW2 EdgeE1"/></vehicle>
	<vehicle id="184" depart="1105"><route edges="EdgeE2 EdgeW1"/></vehicle>
	<vehicle id="185" depart="1109"><route edges="EdgeN2 EdgeE1"/></vehicle>
	<vehicle id="186" depart="1111"><route edges="EdgeW2 EdgeE1"/></vehicle>
	<vehicle id="187" depart="1118"><route edges="EdgeN2 EdgeS1"/></vehicle>
	<vehicle id="188" depart="1134"><route edges="EdgeN2 EdgeE1"/></vehicle>
	<vehicle id="189" depart="1136"><route edges="EdgeW2 EdgeE1"/></vehicle>
	<vehicle id="190" depart="1137"><route edges="EdgeE2 EdgeW1"/></vehicle>
	<vehicle id="191" depart="1141"><route edges="EdgeS2 EdgeE1"/></vehicle>
	<vehicle id="192" depart="1143"><route edges="EdgeW2 EdgeS1"/></vehicle>
	<vehicle id="193" depart="1144"><route edges="EdgeE2 EdgeS1"/></vehicle>
	<vehicle id="194" depart="1145"><route edges="EdgeE2 EdgeS1"/></vehicle>
	<vehicle id="195" depart="1161"><route edges="EdgeE2 EdgeW1"/></vehicle>
	<vehicle id="196" depart="1165"><route edges="EdgeE2 EdgeS1"/></vehicle>
	<vehicle id="197" depart="1165"><route edges="EdgeN2 EdgeW1"/></vehicle>
	<vehicle id="198" depart="1169"><route edges="EdgeW2 EdgeE1"/></vehicle>
	<vehicle id="199" depart="1171"><route edges="EdgeW2 EdgeS1"/></vehicle>
	<vehicle id="200" depart="1174"><route edges="EdgeS2 EdgeE1"/></vehicle>
	<vehicle id="201" depart="1182"><route edges="EdgeE2 EdgeN1"/></vehicle>
	<vehicle id="202" depart="1189"><route edges="EdgeE2 EdgeN1"/></vehicle>
	<vehicle id="203" depart="1190"><route edges="EdgeN2 EdgeW1"/></vehicle>
	<vehicle id="204" depart="1197"><route edges="EdgeS2 EdgeE1"/></vehicle>
	<vehicle id="205" depart="1198"><route edges="EdgeN2 EdgeW1"/></vehicle>
	<vehicle id="206" depart="1199"><route edges="EdgeN2 EdgeS1"/></vehicle>
	<vehicle id="207" depart="1205"><route edges="EdgeS2 EdgeE1"/></vehicle>
	<vehicle id="208" depart="1230"><route edges="EdgeN2 EdgeS1"/></vehicle>
	<vehicle id="209" depart="1237"><route edges="EdgeS2 EdgeN1"/></vehicle>
	<vehicle id="210" depart="1242"><route edges="EdgeS2 EdgeE1"/></vehicle>
	<vehicle id="211" depart="1249"><route edges="EdgeS2 EdgeW1"/></vehicle>
	<vehicle id="212" depart="1260"><route edges="EdgeE2 EdgeW1"/></vehicle>
	<vehicle id="213" depart="1261"><route edges="EdgeE2 EdgeS1"/></vehicle>
	<vehicle id="214" depart="1268"><route edges="EdgeN2 EdgeE1"/></vehicle>
	<vehicle id="215" depart="1270"><route edges="EdgeN2 EdgeE1"/></vehicle>
	<vehicle id="216" depart="1277"><route edges="EdgeE2 EdgeS1"/></vehicle>
	<vehicle id="217" depart="1279"><route edges="EdgeW2 EdgeE1"/></vehicle>
	<vehicle id="218" depart="1281"><route edges="EdgeS2 EdgeN1"/></vehicle>
	<vehicle id="219" depart="1282"><route edges="EdgeS2 EdgeW1"/></vehicle>
	<vehicle id="220" depart="1295"><route edges="EdgeN2 EdgeW1"/></vehicle>
	<vehicle id="221" depart="1297"><route edges="EdgeW2 EdgeN1"/></vehicle>
	<vehicle id="222" depart="1308"><route edges="EdgeN2 EdgeE1"/></vehicle>
	<vehicle id="223" depart="1322"><route edges="EdgeE2 EdgeW1"/></vehicle>
	<vehicle id="224" depart="1324"><route edges="EdgeN2 EdgeW1"/></vehicle>
	<vehicle id="225" depart="1325"><route edges="EdgeE2 EdgeW1"/></vehicle>
	<vehicle id="226" depart="1326"><route edges="EdgeS2 EdgeN1"/></vehicle>
	<vehicle id="227" depart="1328"><route edges="EdgeE2 EdgeS1"/></vehicle>
	<vehicle id="228" depart="1348"><route edges="EdgeE2 EdgeN1"/></vehicle>
	<vehicle id="229" depart="1352"><route edges="EdgeE2 EdgeS1"/></vehicle>
	<vehicle id="230" depart="1367"><route edges="EdgeW2 EdgeS1"/></vehicle>
	<vehicle id="231" depart="1370"><route edges="EdgeS2 EdgeN1"/></vehicle>
	<vehicle id="232" depart="1372"><route edges="EdgeS2 EdgeN1"/></vehicle>
	<vehicle id="233" depart="1389"><route edges="EdgeS2 EdgeN1"/></vehicle>
	<vehicle id="234" depart="1389"><route edges="EdgeN2 EdgeW1"/></vehicle>
	<vehicle id="235" depart="1392"><route edges="EdgeW2 EdgeS1"/></vehicle>
	<vehicle id="236" depart="1393"><route edges="EdgeE2 EdgeW1"/></vehicle>
	<vehicle id="237" depart="1395"><route edges="EdgeE2 EdgeS1"/></vehicle>
	<vehicle id="238" depart="1404"><route edges="EdgeN2 EdgeW1"/></vehicle>
	<vehicle id="239" depart="1407"><route edges="EdgeS2 EdgeE1"/></vehicle>
	<vehicle id="240" depart="1407"><route edges="EdgeS2 EdgeN1"/></vehicle>
	<vehicle id="241" depart="1408"><route edges="EdgeE2 EdgeW1"/></vehicle>
	<vehicle id="242" depart="1412"><route edges="EdgeW2 EdgeN1"/></vehicle>
	<vehicle id="243" depart="1415"><route edges="EdgeN2 EdgeE1"/></vehicle>
	<vehicle id="244" depart="1425"><route edges="EdgeE2 EdgeS1"/></vehicle>
	<vehicle id="245" depart="1456"><route edges="EdgeN2 EdgeS1"/></vehicle>
	<vehicle id="246" depart="1467"><route edges="EdgeW2 EdgeE1"/></vehicle>
	<vehicle id="247" depart="1470"><route edges="EdgeW2 EdgeN1"/></vehicle>
	<vehicle id="248" depart="1470"><route edges="EdgeW2 EdgeE1"/></vehicle>
	<vehicle id="249" depart="1470"><route edges="EdgeS2 EdgeN1"/></vehicle>
	<vehicle id="250" depart="1479"><route edges="EdgeS2 EdgeN1"/></vehicle>
	<vehicle id="251" depart="1480"><route edges="EdgeS2 EdgeE1"/></vehicle>
	<vehicle id="252" depart="1480"><route edges="EdgeW2 EdgeS1"/></vehicle>
	<vehicle id="253" depart="1481"><route edges="EdgeS2 EdgeN1"/></vehicle>
	<vehicle id="254" depart="1482"><route edges="EdgeE2 EdgeW1"/></vehicle>
	<vehicle id="255" depart="1491"><route edges="EdgeW2 EdgeS1"/></vehicle>
	<vehicle id="256" depart="1495"><route edges="EdgeE2 EdgeW1"/></vehicle>
	<vehicle id="257" depart="1496"><route edges="EdgeS2 EdgeW1"/></vehicle>
	<vehicle id="258" depart="1501"><route edges="EdgeW2 EdgeS1"/></vehicle>
	<vehicle id="259" depart="1502"><route edges="EdgeS2 EdgeN1"/></vehicle>
	<vehicle id="260" depart="1528"><route edges="EdgeS2 EdgeE1"/></vehicle>
	<vehicle id="261" depart="1529"><route edges="EdgeW2 EdgeN1"/></vehicle>
	<vehicle id="262" depart="1531"><route edges="EdgeE2 EdgeS1"/></vehicle>
	<vehicle id="263" depart="1532"><route edges="EdgeW2 EdgeN1"/></vehicle>
	<vehicle id="264" depart="1536"><route edges="EdgeE2 EdgeN1"/></vehicle>
	<vehicle id="265" depart="1542"><route edges="EdgeN2 EdgeS1"/></vehicle>
	<vehicle id="266" depart="1543"><route edges="EdgeS2 EdgeN1"/></vehicle>
	<vehicle id="267" depart="1544"><route edges="EdgeS2 EdgeW1"/></vehicle>
	<vehicle id="268" depart="1544"><route edges="EdgeN2 EdgeE1"/></vehicle>
	<vehicle id="269" depart="1552"><route edges="EdgeW2 EdgeE1"/></vehicle>
	<vehicle id="270" depart="1556"><route edges="EdgeE2 EdgeN1"/></vehicle>
	<vehicle id="271" depart="1557"><route edges="EdgeE2 EdgeN1"/></vehicle>
	<vehicle id="272" depart="1557"><route edges="EdgeE2 EdgeW1"/></vehicle>
	<vehicle id="273" depart="1558"><route edges="EdgeS2 EdgeN1"/></vehicle>
	<vehicle id="274" depart="1559"><route edges="EdgeS2 EdgeN1"/></vehicle>
	<vehicle id="275" depart="1563"><route edges="EdgeS2 EdgeN1"/></vehicle>
	<vehicle id="276" depart="1566"><route edges="EdgeE2 EdgeN1"/></vehicle>
	<vehicle id="277" depart="1574"><route edges="EdgeW2 EdgeN1"/></vehicle>
	<vehicle id="278" depart="1574"><route edges="EdgeN2 EdgeW1"/></vehicle>
	<vehicle id="279" depart="1576"><route edges="EdgeW2 EdgeS1"/></vehicle>
	<vehicle id="280" depart="1583"><route edges="EdgeS2 EdgeN1"/></vehicle>
	<vehicle id="281" depart="1583"><route edges="EdgeS2 EdgeW1"/></vehicle>
	<vehicle id="282" depart="1584"><route edges="EdgeE2 EdgeW1"/></vehicle>
	<vehicle id="283" depart="1585"><route edges="EdgeN2 EdgeS1"/></vehicle>
	<vehicle id="284" depart="1595"><route edges="EdgeN2 EdgeS1"/></vehicle>
	<vehicle id="285" depart="1598"><route edges="EdgeW2 EdgeE1"/></vehicle>
	<vehicle id="286" depart="1602"><route edges="EdgeN2 EdgeS1"/></vehicle>
	<vehicle id="287" depart="1607"><route edges="EdgeW2 EdgeS1"/></vehicle>
	<vehicle id="288" depart="1610"><route edges="EdgeW2 EdgeE1"/></vehicle>
	<vehicle id="289" depart="1612"><route edges="EdgeS2 EdgeW1"/></vehicle>
	<vehicle id="290" depart="1613"><route edges="EdgeN2 EdgeS1"/></vehicle>
	<vehicle id="291" depart="1619"><route edges="EdgeE2 EdgeS1"/></vehicle>
	<vehicle id="292" depart="1627"><route edges="EdgeN2 EdgeS1"/></vehicle>
	<vehicle id="293" depart="1629"><route edges="EdgeS2 EdgeN1"/></vehicle>
	<vehicle id="294" depart="1641"><route edges="EdgeW2 EdgeN1"/></vehicle>
	<vehicle id="295" depart="1647"><route edges="EdgeN2 EdgeW1"/></vehicle>
	<vehicle id="296" depart="1653"><route edges="EdgeE2 EdgeN1"/></vehicle>
	<vehicle id="297" depart="1654"><route edges="EdgeE2 EdgeN1"/></vehicle>
	<vehicle id="298" depart="1654"><route edges="EdgeW2 EdgeN1"/></vehicle>
	<vehicle id="299" depart="1656"><route edges="EdgeW2 EdgeN1"/></vehicle>
	<vehicle id="300" depart="1656"><route edges="EdgeE2 EdgeS1"/></vehicle>
	<vehicle id="301" depart="1657"><route edges="EdgeW2 EdgeE1"/></vehicle>
	<vehicle id="302" depart="1657"><route edges="EdgeN2 EdgeE1"/></vehicle>
	<vehicle id="303" depart="1659"><route edges="EdgeW2 EdgeE1"/></vehicle>
	<vehicle id="304" depart="1659"><route edges="EdgeW2 EdgeN1"/></vehicle>
	<vehicle id="305" depart="1659"><route edges="EdgeE2 EdgeS1"/></vehicle>
	<vehicle id="306" depart="1660"><route edges="EdgeE2 EdgeW1"/></vehicle>
	<vehicle id="307" depart="1663"><route edges="EdgeW2 EdgeS1"/></vehicle>
	<vehicle id="308" depart="1674"><route edges="EdgeN2 EdgeE1"/></vehicle>
	<vehicle id="309" depart="1674"><route edges="EdgeW2 EdgeN1"/></vehicle>
	<vehicle id="310" depart="1677"><route edges="EdgeS2 EdgeE1"/></vehicle>
	<vehicle id="311" depart="1679"><route edges="EdgeN2 EdgeS1"/></vehicle>
	<vehicle id="312" depart="1688"><route edges="EdgeN2 EdgeS1"/></vehicle>
	<vehicle id="313" depart="1691"><route edges="EdgeE2 EdgeN1"/></vehicle>
	<vehicle id="314" depart="1693"><route edges="EdgeW2 EdgeN1"/></vehicle>
	<vehicle id="315" depart="1694"><route edges="EdgeS2 EdgeN1"/></vehicle>
	<vehicle id="316" depart="1697"><route edges="EdgeW2 EdgeE1"/></vehicle>
	<vehicle id="317" depart="1698"><route edges="EdgeN2 EdgeS1"/></vehicle>
	<vehicle id="318" depart="1715"><route edges="EdgeN2 EdgeE1"/></vehicle>
	<vehicle id="319" depart="1716"><route edges="EdgeS2 EdgeW1"/></vehicle>
	<vehicle id="320" depart="1725"><route edges="EdgeW2 EdgeS1"/></vehicle>
	<vehicle id="321" depart="1736"><route edges="EdgeW2 EdgeE1"/></vehicle>
	<vehicle id="322" depart="1742"><route edges="EdgeW2 EdgeE1"/></vehicle>
	<vehicle id="323" depart="1743"><route edges="EdgeN2 EdgeW1"/></vehicle>
	<vehicle id="324" depart="1748"><route edges="EdgeE2 EdgeN1"/></vehicle>
	<vehicle id="325" depart="1751"><route edges="EdgeN2 EdgeW1"/></vehicle>
	<vehicle id="326" depart="1754"><route edges="EdgeS2 EdgeW1"/></vehicle>
	<vehicle id="327" depart="1755"><route edges="EdgeW2 EdgeE1"/></vehicle>
	<vehicle id="328" depart="1757"><route edges="EdgeN2 EdgeE1"/></vehicle>
	<vehicle id="329" depart="1757"><route edges="EdgeW2 EdgeN1"/></vehicle>
	<vehicle id="330" depart="1760"><route edges="EdgeW2 EdgeN1"/></vehicle>
	<vehicle id="331" depart="1764"><route edges="EdgeS2 EdgeW1"/></vehicle>
	<vehicle id="332" depart="1766"><route edges="EdgeW2 EdgeE1"/></vehicle>
	<vehicle id="333" depart="1772"><route edges="EdgeE2 EdgeS1"/></vehicle>
	<vehicle id="334" depart="1791"><route edges="EdgeE2 EdgeS1"/></vehicle>
	<vehicle id="335" depart="1794"><route edges="EdgeN2 EdgeE1"/></vehicle>
	<vehicle id="336" depart="1794"><route edges="EdgeW2 EdgeN1"/></vehicle>
	<vehicle id="337" depart="1799"><route edges="EdgeE2 EdgeW1"/></vehicle>
	<vehicle id="338" depart="1805"><route edges="EdgeE2 EdgeW1"/></vehicle>
	<vehicle id="339" depart="1812"><route edges="EdgeW2 EdgeN1"/></vehicle>
	<vehicle id="340" depart="1815"><route edges="EdgeE2 EdgeS1"/></vehicle>
	<vehicle id="341" depart="1819"><route edges="EdgeE2 EdgeS1"/></vehicle>
	<vehicle id="342" depart="1822"><route edges="EdgeN2 EdgeW1"/></vehicle>
	<vehicle id="343" depart="1828"><route edges="EdgeN2 EdgeE1"/></vehicle>
	<vehicle id="344" depart="1839"><route edges="EdgeW2 EdgeE1"/></vehicle>
	<vehicle id="345" depart="1849"><route edges="EdgeN2 EdgeW1"/></vehicle>
	<vehicle id="346" depart="1859"><route edges="EdgeW2 EdgeE1"/></vehicle>
	<vehicle id="347" depart="1869"><route edges="EdgeE2 EdgeN1"/></vehicle>
	<vehicle id="348" depart="1870"><route edges="EdgeW2 EdgeE1"/></vehicle>
	<vehicle id="349" depart="1871"><route edges="EdgeW2 EdgeS1"/></vehicle>
	<vehicle id="350" depart="1875"><route edges="EdgeS2 EdgeE1"/></vehicle>
	<vehicle id="351" depart="1876"><route edges="EdgeS2 EdgeE1"/></vehicle>
	<vehicle id="352" depart="1877"><route edges="EdgeS2 EdgeN1"/></vehicle>
	<vehicle id="353" depart="1891"><route edges="EdgeS2 EdgeW1"/></vehicle>
	<vehicle id="354" depart="1893"><route edges="EdgeW2 EdgeE1"/></vehicle>
	<vehicle id="355" depart="1902"><route edges="EdgeN2 EdgeS1"/></vehicle>
	<vehicle id="356" depart="1905"><route edges="EdgeW2 EdgeE1"/></vehicle>
	<vehicle id="357" depart="1908"><route edges="EdgeW2 EdgeS1"/></vehicle>
	<vehicle id="358" depart="1911"><route edges="EdgeW2 EdgeE1"/></vehicle>
	<vehicle id="359" depart="1911"><route edges="EdgeN2 EdgeS1"/></vehicle>
	<vehicle id="360" depart="1915"><route edges="EdgeS2 EdgeN1"/></vehicle>
	<vehicle id="361" depart="1917"><route edges="EdgeE2 EdgeN1"/></vehicle>
	<vehicle id="362" depart="1920"><route edges="EdgeW2 EdgeN1"/></vehicle>
	<vehicle id="363" depart="1928"><route edges="EdgeS2 EdgeW1"/></vehicle>
	<vehicle id="364" depart="1932"><route edges="EdgeN2 EdgeS1"/></vehicle>
	<vehicle id="365" depart="1934"><route edges="EdgeS2 EdgeE1"/></vehicle>
	<vehicle id="366" depart="1938"><route edges="EdgeE2 EdgeN1"/></vehicle>
	<vehicle id="367" depart="1938"><route edges="EdgeS2 EdgeN1"/></vehicle>
	<vehicle id="368" depart="1939"><route edges="EdgeS2 EdgeW1"/></vehicle>
	<vehicle id="369" depart="1948"><route edges="EdgeN2 EdgeE1"/></vehicle>
	<vehicle id="370" depart="1948"><route edges="EdgeW2 EdgeS1"/></vehicle>
	<vehicle id="371" depart="1948"><route edges="EdgeN2 EdgeE1"/></vehicle>
	<vehicle id="372" depart="1954"><route edges="EdgeE2 EdgeW1"/></vehicle>
	<vehicle id="373" depart="1961"><route edges="EdgeN2 EdgeS1"/></vehicle>
	<vehicle id="374" depart="1961"><route edges="EdgeN2 EdgeW1"/></vehicle>
	<vehicle id="375" depart="1966"><route edges="EdgeN2 EdgeE1"/></vehicle>
	<vehicle id="376" depart="1967"><route edges="EdgeN2 EdgeE1"/></vehicle>
	<vehicle id="377" depart="1968"><route edges="EdgeW2 EdgeS1"/></vehicle>
	<vehicle id="378" depart="1969"><route edges="EdgeS2 EdgeW1"/></vehicle>
	<vehicle id="379" depart="1972"><route edges="EdgeS2 EdgeW1"/></vehicle>
	<vehicle id="380" depart="1975"><route edges="EdgeE2 EdgeW1"/></vehicle>
	<vehicle id="381" depart="1980"><route edges="EdgeE2 EdgeS1"/></vehicle>
	<vehicle id="382" depart="1982"><route edges="EdgeS2 EdgeE1"/></vehicle>
	<vehicle id="383" depart="1983"><route edges="EdgeS2 EdgeE1"/></vehicle>
	<vehicle id="384" depart="1984"><route edges="EdgeS2 EdgeW1"/></vehicle>
	<vehicle id="385" depart="1985"><route edges="EdgeW2 EdgeS1"/></vehicle>
	<vehicle id="386" depart="1990"><route edges="EdgeW2 EdgeN1"/></vehicle>
	<vehicle id="387" depart="1996"><route edges="EdgeS2 EdgeN1"/></vehicle>
	<vehicle id="388" depart="1998"><route edges="EdgeW2 EdgeE1"/></vehicle>
	<vehicle id="389" depart="1999"><route edges="EdgeE2 EdgeS1"/></vehicle>
	<vehicle id="390" depart="2004"><route edges="EdgeN2 EdgeE1"/></vehicle>
	<vehicle id="391" depart="2017"><route edges="EdgeS2 EdgeE1"/></vehicle>
	<vehicle id="392" depart="2020"><route edges="EdgeW2 EdgeS1"/></vehicle>
	<vehicle id="393" depart="2021"><route edges="EdgeS2 EdgeN1"/></vehicle>
	<vehicle id="394" depart="2025"><route edges="EdgeE2 EdgeS1"/></vehicle>
	<vehicle id="395" depart="2027"><route edges="EdgeW2 EdgeN1"/></vehicle>
	<vehicle id="396" depart="2036"><route edges="EdgeN2 EdgeE1"/></vehicle>
	<vehicle id="397" depart="2048"><route edges="EdgeN2 EdgeE1"/></vehicle>
	<vehicle id="398" depart="2048"><route edges="EdgeW2 EdgeE1"/></vehicle>
	<vehicle id="399" depart="2058"><route edges="EdgeW2 EdgeE1"/></vehicle>
	<vehicle id="400" depart="2059"><route edges="EdgeN2 EdgeS1"/></vehicle>
	<vehicle id="401" depart="2060"><route edges="EdgeN2 EdgeW1"/></vehicle>
	<vehicle id="402" depart="2065"><route edges="EdgeN2 EdgeS1"/></vehicle>
	<vehicle id="403" depart="2069"><route edges="EdgeS2 EdgeN1"/></vehicle>
	<vehicle id="404" depart="2070"><route edges="EdgeS2 EdgeW1"/></vehicle>
	<vehicle id="405" depart="2076"><route edges="EdgeW2 EdgeN1"/></vehicle>