<?xml version="1.0" encoding="UTF-8"?>
<routes xmlns:xsi="http://www.w3.org/2001/XMLSchema-instance" xsi:noNamespaceSchemaLocation="http://sumo.dlr.de/xsd/routes_file.xsd">
	<vehicle id="0" depart="20"><route edges="EdgeN2 EdgeE1"/></vehicle>
	<vehicle id="1" depart="21"><route edges="EdgeN2 EdgeE1"/></vehicle>
	<vehicle id="2" depart="24"><route edges="EdgeE2 EdgeS1"/></vehicle>
	<vehicle id="3" depart="30"><route edges="EdgeE2 EdgeW1"/></vehicle>
	<vehicle id="4" depart="34"><route edges="EdgeN2 EdgeS1"/></vehicle>
	<vehicle id="5" depart="42"><route edges="EdgeN2 EdgeE1"/></vehicle>
	<vehicle id="6" depart="49"><route edges="EdgeW2 EdgeE1"/></vehicle>
	<vehicle id="7" depart="51"><route edges="EdgeN2 EdgeE1"/></vehicle>
	<vehicle id="8" depart="55"><route edges="EdgeW2 EdgeN1"/></vehicle>
	<vehicle id="9" depart="61"><route edges="EdgeS2 EdgeN1"/></vehicle>
	<vehicle id="10" depart="62"><route edges="EdgeN2 EdgeE1"/></vehicle>
	<vehicle id="11" depart="64"><route edges="EdgeE2 EdgeN1"/></vehicle>
	<vehicle id="12" depart="69"><route edges="EdgeE2 EdgeS1"/></vehicle>
	<vehicle id="13" depart="72"><route edges="EdgeW2 EdgeE1"/></vehicle>
	<vehicle id="14" depart="73"><route edges="EdgeE2 EdgeS1"/></vehicle>
	<vehicle id="15" depart="82"><route edges="EdgeN2 EdgeS1"/></vehicle>
	<vehicle id="16" depart="82"><route edges="EdgeE2 EdgeW1"/></vehicle>
	<vehicle id="17" depart="96"><route edges="EdgeE2 EdgeS1"/></vehicle>
	<vehicle id="18" depart="119"><route edges="EdgeE2 EdgeW1"/></vehicle>
	<vehicle id="19" depart="133"><route edges="EdgeE2 EdgeN1"/></vehicle>
	<vehicle id="20" depart="134"><route edges="EdgeN2 EdgeE1"/></vehicle>
	<vehicle id="21" depart="137"><route edges="EdgeW2 EdgeE1"/></vehicle>
	<vehicle id="22" depart="161"><route edges="EdgeS2 EdgeN1"/></vehicle>
	<vehicle id="23" depart="170"><route edges="EdgeW2 EdgeS1"/></vehicle>
	<vehicle id="24" depart="208"><route edges="EdgeE2 EdgeN1"/></vehicle>
	<vehicle id="25" depart="213"><route edges="EdgeE2 EdgeN1"/></vehicle>
	<vehicle id="26" depart="214"><route edges="EdgeS2 EdgeN1"/></vehicle>
	<vehicle id="27" depart="221"><route edges="EdgeN2 EdgeS1"/></vehicle>
	<vehicle id="28" depart="228"><route edges="EdgeS2 EdgeE1"/></vehicle>
	<vehicle id="29" depart="246"><route edges="EdgeW2 EdgeE1"/></vehicle>
	<vehicle id="30" depart="250"><route edges="EdgeW2 EdgeE1"/></vehicle>
	<vehicle id="31" depart="266"><route edges="EdgeW2 EdgeS1"/></vehicle>
	<vehicle id="32" depart="267"><route edges="EdgeS2 EdgeE1"/></vehicle>
	<vehicle id="33" depart="275"><route edges="EdgeE2 EdgeW1"/></vehicle>
	<vehicle id="34" depart="282"><route edges="EdgeS2 EdgeE1"/></vehicle>
	<vehicle id="35" depart="283"><route edges="EdgeE2 EdgeW1"/></vehicle>
	<vehicle id="36" depart="289"><route edges="EdgeE2 EdgeW1"/></vehicle>
	<vehicle id="37" depart="295"><route edges="EdgeS2 EdgeE1"/></vehicle>
	<vehicle id="38" depart="336"><route edges="EdgeW2 EdgeE1"/></vehicle>
	<vehicle id="39" depart="363"><route edges="EdgeW2 EdgeE1"/></vehicle>
	<vehicle id="40" depart="365"><route edges="EdgeW2 EdgeN1"/></vehicle>
	<vehicle id="41" depart="380"><route edges="EdgeE2 EdgeW1"/></vehicle>
	<vehicle id="42" depart="394"><route edges="EdgeE2 EdgeW1"/></vehicle>
	<vehicle id="43" depart="419"><route edges="EdgeS2 EdgeE1"/></vehicle>
	<vehicle id="44" depart="421"><route edges="EdgeN2 EdgeE1"/></vehicle>
	<vehicle id="45" depart="427"><route edges="EdgeE2 EdgeW1"/></vehicle>
	<vehicle id="46" depart="429"><route edges="EdgeW2 EdgeS1"/></vehicle>
	<vehicle id="47" depart="431"><route edges="EdgeN2 EdgeW1"/></vehicle>
	<vehicle id="48" depart="433"><route edges="EdgeE2 EdgeW1"/></vehicle>
	<vehicle id="49" depart="440"><route edges="EdgeS2 EdgeE1"/></vehicle>
	<vehicle id="50" depart="451"><route edges="EdgeE2 EdgeS1"/></vehicle>
	<vehicle id="51" depart="455"><route edges="EdgeS2 EdgeW1"/></vehicle>
	<vehicle id="52" depart="463"><route edges="EdgeW2 EdgeE1"/></vehicle>
	<vehicle id="53" depart="492"><route edges="EdgeW2 EdgeE1"/></vehicle>
	<vehicle id="54" depart="493"><route edges="EdgeN2 EdgeS1"/></vehicle>
	<vehicle id="55" depart="496"><route edges="EdgeW2 EdgeE1"/></vehicle>
	<vehicle id="56" depart="500"><route edges="EdgeN2 EdgeW1"/></vehicle>
	<vehicle id="57" depart="500"><route edges="EdgeS2 EdgeE1"/></vehicle>
	<vehicle id="58" depart="501"><route edges="EdgeS2 EdgeW1"/></vehicle>
	<vehicle id="59" depart="501"><route edges="EdgeW2 EdgeS1"/></vehicle>
	<vehicle id="60" depart="502"><route edges="EdgeW2 EdgeN1"/></vehicle>
	<vehicle id="61" depart="504"><route edges="EdgeE2 EdgeW1"/></vehicle>
	<vehicle id="62" depart="523"><route edges="EdgeN2 EdgeW1"/></vehicle>
	<vehicle id="63" depart="527"><route edges="EdgeE2 EdgeW1"/></vehicle>
	<vehicle id="64" depart="532"><route edges="EdgeW2 EdgeE1"/></vehicle>
	<vehicle id="65" depart="537"><route edges="EdgeE2 EdgeW1"/></vehicle>
	<vehicle id="66" depart="545"><route edges="EdgeE2 EdgeW1"/></vehicle>
	<vehicle id="67" depart="545"><route edges="EdgeW2 EdgeE1"/></vehicle>
	<vehicle id="68" depart="548"><route edges="EdgeN2 EdgeE1"/></vehicle>
	<vehicle id="69" depart="552"><route edges="EdgeS2 EdgeE1"/></vehicle>
	<vehicle id="70" depart="552"><route edges="EdgeW2 EdgeS1"/></vehicle>
	<vehicle id="71" depart="553"><route edges="EdgeW2 EdgeE1"/></vehicle>
	<vehicle id="72" depart="558"><route edges="EdgeE2 EdgeW1"/></vehicle>
	<vehicle id="73" depart="560"><route edges="EdgeW2 EdgeE1"/></vehicle>
	<vehicle id="74" depart="565"><route edges="EdgeW2 EdgeE1"/></vehicle>
	<vehicle id="75" depart="573"><route edges="EdgeN2 EdgeW1"/></vehicle>
	<vehicle id="76" depart="580"><route edges="EdgeE2 EdgeW1"/></vehicle>
	<vehicle id="77" depart="601"><route edges="EdgeW2 EdgeE1"/></vehicle>
	<vehicle id="78" depart="606"><route edges="EdgeN2 EdgeE1"/></vehicle>
	<vehicle id="79" depart="610"><route edges="EdgeE2 EdgeW1"/></vehicle>
	<vehicle id="80" depart="618"><route edges="EdgeE2 EdgeW1"/></vehicle>
	<vehicle id="81" depart="621"><route edges="EdgeW2 EdgeE1"/></vehicle>
	<vehicle id="82" depart="633"><route edges="EdgeS2 EdgeE1"/></vehicle>
	<vehicle id="83" depart="634"><route edges="EdgeW2 EdgeE1"/></vehicle>
	<vehicle id="84" depart="636"><route edges="EdgeW2 EdgeE1"/></vehicle>
	<vehicle id="85" depart="638"><route edges="EdgeE2 EdgeW1"/></vehicle>
	<vehicle id="86" depart="642"><route edges="EdgeW2 EdgeE1"/></vehicle>
	<vehicle id="87" depart="643"><route edges="EdgeS2 EdgeE1"/></vehicle>
	<vehicle id="88" depart="646"><route edges="EdgeN2 EdgeS1"/></vehicle>
	<vehicle id="89" depart="648"><route edges="EdgeW2 EdgeE1"/></vehicle>
	<vehicle id="90" depart="650"><route edges="EdgeE2 EdgeW1"/></vehicle>
	<vehicle id="91" depart="659"><route edges="EdgeW2 EdgeE1"/></vehicle>
	<vehicle id="92" depart="663"><route edges="EdgeS2 EdgeN1"/></vehicle>
	<vehicle id="93" depart="673"><route edges="EdgeE2 EdgeW1"/></vehicle>
	<vehicle id="94" depart="674"><route edges="EdgeW2 EdgeE1"/></vehicle>
	<vehicle id="95" depart="674"><route edges="EdgeE2 EdgeW1"/></vehicle>
	<vehicle id="96" depart="690"><route edges="EdgeS2 EdgeW1"/></vehicle>
	<vehicle id="97" depart="712"><route edges="EdgeS2 EdgeW1"/></vehicle>
	<vehicle id="98" depart="713"><route edges="EdgeE2 EdgeW1"/></vehicle>
	<vehicle id="99" depart="717"><route edges="EdgeW2 EdgeS1"/></vehicle>
	<vehicle id="100" depart="721"><route edges="EdgeW2 EdgeE1"/></vehicle>
	<vehicle id="101" depart="724"><route edges="EdgeE2 EdgeS1"/></vehicle>
	<vehicle id="102" depart="727"><route edges="EdgeE2 EdgeN1"/></vehicle>
	<vehicle id="103" depart="735"><route edges="EdgeE2 EdgeN1"/></vehicle>
	<vehicle id="104" depart="736"><route edges="EdgeE2 EdgeW1"/></vehicle>
	<vehicle id="105" depart="746"><route edges="EdgeE2 EdgeW1"/></vehicle>
	<vehicle id="106" depart="764"><route edges="EdgeW2 EdgeE1"/></vehicle>
	<vehicle id="107" depart="765"><route edges="EdgeE2 EdgeN1"/></vehicle>
	<vehicle id="108" depart="773"><route edges="EdgeW2 EdgeN1"/></vehicle>
	<vehicle id="109" depart="781"><route edges="EdgeE2 EdgeW1"/></vehicle>
	<vehicle id="110" depart="783"><route edges="EdgeN2 EdgeE1"/></vehicle>
	<vehicle id="111" depart="785"><route edges="EdgeS2 EdgeE1"/></vehicle>
	<vehicle id="112" depart="787"><route edges="EdgeS2 EdgeW1"/></vehicle>
	<vehicle id="113" depart="793"><route edges="EdgeN2 EdgeE1"/></vehicle>
	<vehicle id="114" depart="794"><route edges="EdgeW2 EdgeE1"/></vehicle>
	<vehicle id="115" depart="798"><route edges="EdgeW2 EdgeE1"/></vehicle>
	<vehicle id="116" depart="804"><route edges="EdgeE2 EdgeW1"/></vehicle>
	<vehicle id="117" depart="806"><route edges="EdgeW2 EdgeE1"/></vehicle>
	<vehicle id="118" depart="810"><route edges="EdgeW2 EdgeE1"/></vehicle>
	<vehicle id="119" depart="814"><route edges="EdgeW2 EdgeE1"/></vehicle>
	<vehicle id="120" depart="816"><route edges="EdgeE2 EdgeW1"/></vehicle>
	<vehicle id="121" depart="821"><route edges="EdgeW2 EdgeE1"/></vehicle>
	<vehicle id="122" depart="822"><route edges="EdgeW2 EdgeE1"/></vehicle>
	<vehicle id="123" depart="833"><route edges="EdgeE2 EdgeN1"/></vehicle>
	<vehicle id="124" depart="834"><route edges="EdgeS2 EdgeN1"/></vehicle>
	<vehicle id="125" depart="840"><route edges="EdgeE2 EdgeW1"/></vehicle>
	<vehicle id="126" depart="841"><route edges="EdgeW2 EdgeE1"/></vehicle>
	<vehicle id="127" depart="843"><route edges="EdgeS2 EdgeE1"/></vehicle>
	<vehicle id="128" depart="847"><route edges="EdgeN2 EdgeW1"/></vehicle>
	<vehicle id="129" depart="856"><route edges="EdgeN2 EdgeS1"/></vehicle>
	<vehicle id="130" depart="864"><route edges="EdgeN2 EdgeW1"/></vehicle>
	<vehicle id="131" depart="868"><route edges="EdgeW2 EdgeE1"/></vehicle>
	<vehicle id="132" depart="869"><route edges="EdgeE2 EdgeW1"/></vehicle>
	<vehicle id="133" depart="874"><route edges="EdgeW2 EdgeE1"/></vehicle>
	<vehicle id="134" depart="884"><route edges="EdgeE2 EdgeN1"/></vehicle>
	<vehicle id="135" depart="885"><route edges="EdgeN2 EdgeW1"/></vehicle>
	<vehicle id="136" depart="885"><route edges="EdgeW2 EdgeS1"/></vehicle>
	<vehicle id="137" depart="888"><route edges="EdgeS2 EdgeW1"/></vehicle>
	<vehicle id="138" depart="899"><route edges="EdgeW2 EdgeE1"/></vehicle>
	<vehicle id="139" depart="905"><route edges="EdgeS2 EdgeE1"/></vehicle>
	<vehicle id="140" depart="905"><route edges="EdgeE2 EdgeW1"/></vehicle>
	<vehicle id="141" depart="914"><route edges="EdgeE2 EdgeW1"/></vehicle>
	<vehicle id="142" depart="928"><route edges="EdgeE2 EdgeS1"/></vehicle>
	<vehicle id="143" depart="929"><route edges="EdgeS2 EdgeW1"/></vehicle>
	<vehicle id="144" depart="931"><route edges="EdgeE2 EdgeW1"/></vehicle>
	<vehicle id="145" depart="932"><route edges="EdgeE2 EdgeW1"/></vehicle>
	<vehicle id="146" depart="938"><route edges="EdgeS2 EdgeE1"/></vehicle>
	<vehicle id="147" depart="939"><route edges="EdgeW2 EdgeE1"/></vehicle>
	<vehicle id="148" depart="942"><route edges="EdgeW2 EdgeS1"/></vehicle>
	<vehicle id="149" depart="946"><route edges="EdgeN2 EdgeS1"/></vehicle>
	<vehicle id="150" depart="949"><route edges="EdgeW2 EdgeE1"/></vehicle>
	<vehicle id="151" depart="958"><route edges="EdgeW2 EdgeN1"/></vehicle>
	<vehicle id="152" depart="968"><route edges="EdgeS2 EdgeW1"/></vehicle>
	<vehicle id="153" depart="985"><route edges="EdgeW2 EdgeE1"/></vehicle>
	<vehicle id="154" depart="998"><route edges="EdgeW2 EdgeE1"/></vehicle>
	<vehicle id="155" depart="1002"><route edges="EdgeW2 EdgeE1"/></vehicle>
	<vehicle id="156" depart="1003"><route edges="EdgeS2 EdgeE1"/></vehicle>
	<vehicle id="157" depart="1008"><route edges="EdgeW2 EdgeE1"/></vehicle>
	<vehicle id="158" depart="1016"><route edges="EdgeN2 EdgeW1"/></vehicle>
	<vehicle id="159" depart="1017"><route edges="EdgeS2 EdgeW1"/></vehicle>
	<vehicle id="160" depart="1023"><route edges="EdgeW2 EdgeN1"/></vehicle>
	<vehicle id="161" depart="1030"><route edges="EdgeE2 EdgeS1"/></vehicle>
	<vehicle id="162" depart="1031"><route edges="EdgeW2 EdgeE1"/></vehicle>
	<vehicle id="163" depart="1032"><route edges="EdgeE2 EdgeW1"/></vehicle>
	<vehicle id="164" depart="1034"><route edges="EdgeE2 EdgeW1"/></vehicle>
	<vehicle id="165" depart="1036"><route edges="EdgeN2 EdgeW1"/></vehicle>
	<vehicle id="166" depart="1040"><route edges="EdgeS2 EdgeE1"/></vehicle>
	<vehicle id="167" depart="1043"><route edges="EdgeW2 EdgeN1"/></vehicle>
	<vehicle id="168" depart="1049"><route edges="EdgeE2 EdgeN1"/></vehicle>
	<vehicle id="169" depart="1063"><route edges="EdgeS2 EdgeW1"/></vehicle>
	<vehicle id="170" depart="1063"><route edges="EdgeE2 EdgeW1"/></vehicle>
	<vehicle id="171" depart="1064"><route edges="EdgeE2 EdgeW1"/></vehicle>
	<vehicle id="172" depart="1077"><route edges="EdgeS2 EdgeW1"/></vehicle>
	<vehicle id="173" depart="1083"><route edges="EdgeE2 EdgeS1"/></vehicle>
	<vehicle id="174" depart="1085"><route edges="EdgeE2 EdgeW1"/></vehicle>
	<vehicle id="175" depart="1089"><route edges="EdgeS2 EdgeE1"/></vehicle>
	<vehicle id="176" depart="1097"><route edges="EdgeW2 EdgeE1"/></vehicle>
	<vehicle id="177" depart="1098"><route edges="EdgeE2 EdgeW1"/></vehicle>
	<vehicle id="178" depart="1101"><route edges="EdgeE2 EdgeW1"/></vehicle>
	<vehicle id="179" depart="1101"><route edges="EdgeW2 EdgeE1"/></vehicle>
	<vehicle id="180" depart="1101"><route edges="EdgeE2 EdgeW1"/></vehicle>
	<vehicle id="181" depart="1107"><route edges="EdgeE2 EdgeW1"/></vehicle>
	<vehicle id="182" depart="1108"><route edges="EdgeW2 EdgeE1"/></vehicle>
	<vehicle id="183" depart="1109"><route edges="EdgeS2 EdgeN1"/></vehicle>
	<vehicle id="184" depart="1114"><route edges="EdgeW2 EdgeE1"/></vehicle>
	<vehicle id="185" depart="1114"><route edges="EdgeE2 EdgeW1"/></vehicle>
	<vehicle id="186" depart="1116"><route edges="EdgeW2 EdgeE1"/></vehicle>
	<vehicle id="187" depart="1124"><route edges="EdgeW2 EdgeE1"/></vehicle>
	<vehicle id="188" depart="1125"><route edges="EdgeW2 EdgeE1"/></vehicle>
	<vehicle id="189" depart="1126"><route edges="EdgeW2 EdgeS1"/></vehicle>
	<vehicle id="190" depart="1128"><route edges="EdgeS2 EdgeE1"/></vehicle>
	<vehicle id="191" depart="1132"><route edges="EdgeS2 EdgeE1"/></vehicle>
	<vehicle id="192" depart="1138"><route edges="EdgeS2 EdgeN1"/></vehicle>
	<vehicle id="193" depart="1141"><route edges="EdgeE2 EdgeW1"/></vehicle>
	<vehicle id="194" depart="1146"><route edges="EdgeE2 EdgeW1"/></vehicle>
	<vehicle id="195" depart="1148"><route edges="EdgeW2 EdgeS1"/></vehicle>
	<vehicle id="196" depart="1149"><route edges="EdgeW2 EdgeE1"/></vehicle>
	<vehicle id="197" depart="1154"><route edges="EdgeW2 EdgeE1"/></vehicle>
	<vehicle id="198" depart="1162"><route edges="EdgeS2 EdgeE1"/></vehicle>
	<vehicle id="199" depart="1165"><route edges="EdgeE2 EdgeW1"/></vehicle>
	<vehicle id="200" depart="1167"><route edges="EdgeN2 EdgeW1"/></vehicle>
	<vehicle id="201" depart="1183"><route edges="EdgeW2 EdgeE1"/></vehicle>
	<vehicle id="202" depart="1184"><route edges="EdgeW2 EdgeE1"/></vehicle>
	<vehicle id="203" depart="1198"><route edges="EdgeW2 EdgeE1"/></vehicle>
	<vehicle id="204" depart="1202"><route edges="EdgeW2 EdgeE1"/></vehicle>
	<vehicle id="205" depart="1206"><route edges="EdgeW2 EdgeE1"/></vehicle>
	<vehicle id="206" depart="1206"><route edges="EdgeS2 EdgeW1"/></vehicle>
	<vehicle id="207" depart="1209"><route edges="EdgeW2 EdgeE1"/></vehicle>
	<vehicle id="208" depart="1214"><route edges="EdgeE2 EdgeW1"/></vehicle>
	<vehicle id="209" depart="1219"><route edges="EdgeE2 EdgeW1"/></vehicle>
	<vehicle id="210" depart="1220"><route edges="EdgeW2 EdgeN1"/></vehicle>
	<vehicle id="211" depart="1230"><route edges="EdgeN2 EdgeS1"/></vehicle>
	<vehicle id="212" depart="1234"><route edges="EdgeE2 EdgeW1"/></vehicle>
	<vehicle id="213" depart="1237"><route edges="EdgeS2 EdgeW1"/></vehicle>
	<vehicle id="214" depart="1242"><route edges="EdgeW2 EdgeE1"/></vehicle>
	<vehicle id="215" depart="1242"><route edges="EdgeE2 EdgeW1"/></vehicle>
	<vehicle id="216" depart="1252"><route edges="EdgeE2 EdgeN1"/></vehicle>
	<vehicle id="217" depart="1273"><route edges="EdgeS2 EdgeE1"/></vehicle>
	<vehicle id="218" depart="1273"><route edges="EdgeS2 EdgeW1"/></vehicle>
	<vehicle id="219" depart="1278"><route edges="EdgeE2 EdgeW1"/></vehicle>
	<vehicle id="220" depart="1283"><route edges="EdgeW2 EdgeE1"/></vehicle>
	<vehicle id="221" depart="1288"><route edges="EdgeE2 EdgeS1"/></vehicle>
	<vehicle id="222" depart="1289"><route edges="EdgeS2 EdgeN1"/></vehicle>
	<vehicle id="223" depart="1296"><route edges="EdgeW2 EdgeS1"/></vehicle>
	<vehicle id="224" depart="1296"><route edges="EdgeW2 EdgeE1"/></vehicle>
	<vehicle id="225" depart="1305"><route edges="EdgeE2 EdgeS1"/></vehicle>
	<vehicle id="226" depart="1306"><route edges="EdgeW2 EdgeE1"/></vehicle>
	<vehicle id="227" depart="1307"><route edges="EdgeW2 EdgeN1"/></vehicle>
	<vehicle id="228" depart="1309"><route edges="EdgeS2 EdgeN1"/></vehicle>
	<vehicle id="229" depart="1314"><route edges="EdgeE2 EdgeS1"/></vehicle>
	<vehicle id="230" depart="1315"><route edges="EdgeE2 EdgeS1"/></vehicle>
	<vehicle id="231" depart="1315"><route edges="EdgeS2 EdgeE1"/></vehicle>
	<vehicle id="232" depart="1321"><route edges="EdgeW2 EdgeE1"/></vehicle>
	<vehicle id="233" depart="1331"><route edges="EdgeW2 EdgeE1"/></vehicle>
	<vehicle id="234" depart="1333"><route edges="EdgeE2 EdgeN1"/></vehicle>
	<vehicle id="235" depart="1341"><route edges="EdgeE2 EdgeW1"/></vehicle>
	<vehicle id="236" depart="1345"><route edges="EdgeN2 EdgeW1"/></vehicle>
	<vehicle id="237" depart="1347"><route edges="EdgeN2 EdgeE1"/></vehicle>
	<vehicle id="238" depart="1348"><route edges="EdgeE2 EdgeW1"/></vehicle>
	<vehicle id="239" depart="1357"><route edges="EdgeN2 EdgeS1"/></vehicle>
	<vehicle id="240" depart="1362"><route edges="EdgeW2 EdgeE1"/></vehicle>
	<vehicle id="241" depart="1375"><route edges="EdgeN2 EdgeW1"/></vehicle>
	<vehicle id="242" depart="1377"><route edges="EdgeE2 EdgeW1"/></vehicle>
	<vehicle id="243" depart="1379"><route edges="EdgeW2 EdgeE1"/></vehicle>
	<vehicle id="244" depart="1379"><route edges="EdgeE2 EdgeW1"/></vehicle>
	<vehicle id="245" depart="1388"><route edges="EdgeE2 EdgeW1"/></vehicle>
	<vehicle id="246" depart="1389"><route edges="EdgeS2 EdgeE1"/></vehicle>
	<vehicle id="247" depart="1390"><route edges="EdgeE2 EdgeW1"/></vehicle>
	<vehicle id="248" depart="1391"><route edges="EdgeN2 EdgeE1"/></vehicle>
	<vehicle id="249" depart="1397"><route edges="EdgeS2 EdgeN1"/></vehicle>
	<vehicle id="250" depart="1400"><route edges="EdgeS2 EdgeE1"/></vehicle>
	<vehicle id="251" depart="1404"><route edges="EdgeN2 EdgeW1"/></vehicle>
	<vehicle id="252" depart="1408"><route edges="EdgeW2 EdgeE1"/></vehicle>
	<vehicle id="253" depart="1419"><route edges="EdgeW2 EdgeE1"/></vehicle>
	<vehicle id="254" depart="1420"><route edges="EdgeN2 EdgeE1"/></vehicle>
	<vehicle id="255" depart="1421"><route edges="EdgeE2 EdgeW1"/></vehicle>
	<vehicle id="256" depart="1425"><route edges="EdgeE2 EdgeW1"/></vehicle>
	<vehicle id="257" depart="1431"><route edges="EdgeN2 EdgeW1"/></vehicle>
	<vehicle id="258" depart="1442"><route edges="EdgeW2 EdgeE1"/></vehicle>
	<vehicle id="259" depart="1446"><route edges="EdgeW2 EdgeE1"/></vehicle>
	<vehicle id="260" depart="1453"><route edges="EdgeS2 EdgeN1"/></vehicle>
	<vehicle id="261" depart="1453"><route edges="EdgeN2 EdgeE1"/></vehicle>
	<vehicle id="262" depart="1459"><route edges="EdgeE2 EdgeW1"/></vehicle>
	<vehicle id="263" depart="1464"><route edges="EdgeN2 EdgeS1"/></vehicle>
	<vehicle id="264" depart="1470"><route edges="EdgeE2 EdgeW1"/></vehicle>
	<vehicle id="265" depart="1472"><route edges="EdgeN2 EdgeS1"/></vehicle>
	<vehicle id="266" depart="1474"><route edges="EdgeE2 EdgeW1"/></vehicle>
	<vehicle id="267" depart="1477"><route edges="EdgeS2 EdgeN1"/></vehicle>
	<vehicle id="268" depart="1484"><route edges="EdgeN2 EdgeS1"/></vehicle>
	<vehicle id="269" depart="1490"><route edges="EdgeN2 EdgeW1"/></vehicle>
	<vehicle id="270" depart="1493"><route edges="EdgeS2 EdgeN1"/></vehicle>
	<vehicle id="271" depart="1506"><route edges="EdgeW2 EdgeE1"/></vehicle>
	<vehicle id="272" depart="1507"><route edges="EdgeS2 EdgeE1"/></vehicle>
	<vehicle id="273" depart="1512"><route edges="EdgeE2 EdgeW1"/></vehicle>
	<vehicle id="274" depart="1513"><route edges="EdgeS2 EdgeE1"/></vehicle>
	<vehicle id="275" depart="1514"><route edges="EdgeE2 EdgeW1"/></vehicle>
	<vehicle id="276" depart="1514"><route edges="EdgeW2 EdgeE1"/></vehicle>
	<vehicle id="277" depart="1514"><route edges="EdgeW2 EdgeE1"/></vehicle>
	<vehicle id="278" depart="1515"><route edges="EdgeN2 EdgeE1"/></vehicle>
	<vehicle id="279" depart="1519"><route edges="EdgeE2 EdgeS1"/></vehicle>
	<vehicle id="280" depart="1522"><route edges="EdgeE2 EdgeW1"/></vehicle>
	<vehicle id="281" depart="1523"><route edges="EdgeE2 EdgeW1"/></vehicle>
	<vehicle id="282" depart="1524"><route edges="EdgeN2 EdgeS1"/></vehicle>
	<vehicle id="283" depart="1529"><route edges="EdgeE2 EdgeW1"/></vehicle>
	<vehicle id="284" depart="1530"><route edges="EdgeW2 EdgeE1"/></vehicle>
	<vehicle id="285" depart="1532"><route edges="EdgeE2 EdgeN1"/></vehicle>
	<vehicle id="286" depart="1533"><route edges="EdgeW2 EdgeE1"/></vehicle>
	<vehicle id="287" depart="1535"><route edges="EdgeE2 EdgeW1"/></vehicle>
	<vehicle id="288" depart="1536"><route edges="EdgeW2 EdgeE1"/></vehicle>
	<vehicle id="289" depart="1537"><route edges="EdgeN2 EdgeE1"/></vehicle>
	<vehicle id="290" depart="1546"><route edges="EdgeW2 EdgeE1"/></vehicle>
	<vehicle id="291" depart="1547"><route edges="EdgeW2 EdgeE1"/></vehicle>
	<vehicle id="292" depart="1550"><route edges="EdgeW2 EdgeE1"/></vehicle>
	<vehicle id="293" depart="1552"><route edges="EdgeW2 EdgeE1"/></vehicle>
	<vehicle id="294" depart="1555"><route edges="EdgeW2 EdgeE1"/></vehicle>
	<vehicle id="295" depart="1558"><route edges="EdgeN2 EdgeE1"/></vehicle>
	<vehicle id="296" depart="1559"><route edges="EdgeW2 EdgeE1"/></vehicle>
	<vehicle id="297" depart="1560"><route edges="EdgeW2 EdgeE1"/></vehicle>
	<vehicle id="298" depart="1563"><route edges="EdgeE2 EdgeW1"/></vehicle>
	<vehicle id="299" depart="1570"><route edges="EdgeS2 EdgeW1"/></vehicle>
	<vehicle id="300" depart="1571"><route edges="EdgeW2 EdgeS1"/></vehicle>
	<vehicle id="301" depart="1571"><route edges="EdgeN2 EdgeS1"/></vehicle>
	<vehicle id="302" depart="1576"><route edges="EdgeW2 EdgeE1"/></vehicle>
	<vehicle id="303" depart="1578"><route edges="EdgeE2 EdgeW1"/></vehicle>
	<vehicle id="304" depart="1579"><route edges="EdgeN2 EdgeW1"/></vehicle>
	<vehicle id="305" depart="1581"><route edges="EdgeN2 EdgeS1"/></vehicle>
	<vehicle id="306" depart="1590"><route edges="EdgeN2 EdgeE1"/></vehicle>
	<vehicle id="307" depart="1590"><route edges="EdgeW2 EdgeE1"/></vehicle>
	<vehicle id="308" depart="1595"><route edges="EdgeE2 EdgeW1"/></vehicle>
	<vehicle id="309" depart="1603"><route edges="EdgeE2 EdgeW1"/></vehicle>
	<vehicle id="310" depart="1605"><route edges="EdgeE2 EdgeW1"/></vehicle>
	<vehicle id="311" depart="1605"><route edges="EdgeW2 EdgeS1"/></vehicle>
	<vehicle id="312" depart="1614"><route edges="EdgeE2 EdgeW1"/></vehicle>
	<vehicle id="313" depart="1614"><route edges="EdgeE2 EdgeW1"/></vehicle>
	<vehicle id="314" depart="1624"><route edges="EdgeE2 EdgeW1"/></vehicle>
	<vehicle id="315" depart="1635"><route edges="EdgeN2 EdgeE1"/></vehicle>
	<vehicle id="316" depart="1637"><route edges="EdgeE2 EdgeS1"/></vehicle>
	<vehicle id="317" depart="1651"><route edges="EdgeW2 EdgeE1"/></vehicle>
	<vehicle id="318" depart="1651"><route edges="EdgeN2 EdgeS1"/></vehicle>
	<vehicle id="319" depart="1655"><route edges="EdgeW2 EdgeE1"/></vehicle>
	<vehicle id="320" depart="1655"><route edges="EdgeW2 EdgeE1"/></vehicle>
	<vehicle id="321" depart="1657"><route edges="EdgeN2 EdgeS1"/></vehicle>
	<vehicle id="322" depart="1658"><route edges="EdgeW2 EdgeE1"/></vehicle>
	<vehicle id="323" depart="1663"><route edges="EdgeE2 EdgeW1"/></vehicle>
	<vehicle id="324" depart="1664"><route edges="EdgeE2 EdgeW1"/></vehicle>
	<vehicle id="325" depart="1666"><route edges="EdgeE2 EdgeS1"/></vehicle>
	<vehicle id="326" depart="1670"><route edges="EdgeE2 EdgeW1"/></vehicle>
	<vehicle id="327" depart="1678"><route edges="EdgeE2 EdgeW1"/></vehicle>
	<vehicle id="328" depart="1679"><route edges="EdgeN2 EdgeS1"/></vehicle>
	<vehicle id="329" depart="1681"><route edges="EdgeE2 EdgeW1"/></vehicle>
	<vehicle id="330" depart="1683"><route edges="EdgeE2 EdgeW1"/></vehicle>
	<vehicle id="331" depart="1688"><route edges="EdgeE2 EdgeW1"/></vehicle>
	<vehicle id="332" depart="1694"><route edges="EdgeW2 EdgeE1"/></vehicle>
	<vehicle id="333" depart="1695"><route edges="EdgeW2 EdgeE1"/></vehicle>
	<vehicle id="334" depart="1696"><route edges="EdgeE2 EdgeS1"/></vehicle>
	<vehicle id="335" depart="1698"><route edges="EdgeW2 EdgeS1"/></vehicle>
	<vehicle id="336" depart="1707"><route edges="EdgeS2 EdgeE1"/></vehicle>
	<vehicle id="337" depart="1713"><route edges="EdgeE2 EdgeW1"/></vehicle>
	<vehicle id="338" depart="1721"><route edges="EdgeW2 EdgeN1"/></vehicle>
	<vehicle id="339" depart="1732"><route edges="EdgeE2 EdgeW1"/></vehicle>
	<vehicle id="340" depart="1736"><route edges="EdgeE2 EdgeS1"/></vehicle>
	<vehicle id="341" depart="1738"><route edges="EdgeE2 EdgeW1"/></vehicle>
	<vehicle id="342" depart="1740"><route edges="EdgeW2 EdgeE1"/></vehicle>
	<vehicle id="343" depart="1740"><route edges="EdgeW2 EdgeE1"/></vehicle>
	<vehicle id="344" depart="1743"><route edges="EdgeE2 EdgeS1"/></vehicle>
	<vehicle id="345" depart="1747"><route edges="EdgeE2 EdgeW1"/></vehicle>
	<vehicle id="346" depart="1748"><route edges="EdgeN2 EdgeW1"/></vehicle>
	<vehicle id="347" depart="1751"><route edges="EdgeE2 EdgeW1"/></vehicle>
	<vehicle id="348" depart="1752"><route edges="EdgeS2 EdgeW1"/></vehicle>
	<vehicle id="349" depart="1754"><route edges="EdgeW2 EdgeE1"/></vehicle>
	<vehicle id="350" depart="1759"><route edges="EdgeE2 EdgeW1"/></vehicle>
	<vehicle id="351" depart="1761"><route edges="EdgeW2 EdgeN1"/></vehicle>
	<vehicle id="352" depart="1762"><route edges="EdgeW2 EdgeN1"/></vehicle>
	<vehicle id="353" depart="1768"><route edges="EdgeW2 EdgeE1"/></vehicle>
	<vehicle id="354" depart="1771"><route edges="EdgeW2 EdgeE1"/></vehicle>
	<vehicle id="355" depart="1773"><route edges="EdgeN2 EdgeW1"/></vehicle>
	<vehicle id="356" depart="1779"><route edges="EdgeW2 EdgeS1"/></vehicle>
	<vehicle id="357" depart="1780"><route edges="EdgeE2 EdgeW1"/></vehicle>
	<vehicle id="358" depart="1780"><route edges="EdgeW2 EdgeE1"/></vehicle>
	<vehicle id="359" depart="1780"><route edges="EdgeE2 EdgeW1"/></vehicle>
	<vehicle id="360" depart="1780"><route edges="EdgeW2 EdgeE1"/></vehicle>
	<vehicle id="361" depart="1784"><route edges="EdgeW2 EdgeS1"/></vehicle>
	<vehicle id="362" depart="1793"><route edges="EdgeE2 EdgeN1"/></vehicle>
	<vehicle id="363" depart="1796"><route edges="EdgeW2 EdgeE1"/></vehicle>
	<vehicle id="364" depart="1800"><route edges="EdgeN2 EdgeE1"/></vehicle>
	<vehicle id="365" depart="1803"><route edges="EdgeW2 EdgeE1"/></vehicle>
	<vehicle id="366" depart="1806"><route edges="EdgeE2 EdgeW1"/></vehicle>
	<vehicle id="367" depart="1807"><route edges="EdgeN2 EdgeW1"/></vehicle>
	<vehicle id="368" depart="1808"><route edges="EdgeE2 EdgeS1"/></vehicle>
	<vehicle id="369" depart="1809"><route edges="EdgeE2 EdgeS1"/></vehicle>
	<vehicle id="370" depart="1814"><route edges="EdgeW2 EdgeE1"/></vehicle>
	<vehicle id="371" depart="1814"><route edges="EdgeE2 EdgeW1"/></vehicle>
	<vehicle id="372" depart="1820"><route edges="EdgeE2 EdgeW1"/></vehicle>
	<vehicle id="373" depart="1837"><route edges="EdgeE2 EdgeW1"/></vehicle>
	<vehicle id="374" depart="1843"><route edges="EdgeE2 EdgeW1"/></vehicle>
	<vehicle id="375" depart="1848"><route edges="EdgeE2 EdgeW1"/></vehicle>
	<vehicle id="376" depart="1851"><route edges="EdgeN2 EdgeS1"/></vehicle>
	<vehicle id="377" depart="1857"><route edges="EdgeS2 EdgeE1"/></vehicle>
	<vehicle id="378" depart="1864"><route edges="EdgeN2 EdgeE1"/></vehicle>
	<vehicle id="379" depart="1866"><route edges="EdgeS2 EdgeE1"/></vehicle>
	<vehicle id="380" depart="1868"><route edges="EdgeS2 EdgeE1"/></vehicle>
	<vehicle id="381" depart="1878"><route edges="EdgeN2 EdgeS1"/></vehicle>
	<vehicle id="382" depart="1889"><route edges="EdgeS2 EdgeN1"/></vehicle>
	<vehicle id="383" depart="1899"><route edges="EdgeW2 EdgeN1"/></vehicle>
	<vehicle id="384" depart="1900"><route edges="EdgeE2 EdgeW1"/></vehicle>
	<vehicle id="385" depart="1902"><route edges="EdgeW2 EdgeE1"/></vehicle>
	<vehicle id="386" depart="1911"><route edges="EdgeW2 EdgeE1"/></vehicle>
	<vehicle id="387" depart="1913"><route edges="EdgeW2 EdgeE1"/></vehicle>
	<vehicle id="388" depart="1918"><route edges="EdgeS2 EdgeW1"/></vehicle>
	<vehicle id="389" depart="1920"><route edges="EdgeE2 EdgeW1"/></vehicle>
	<vehicle id="390" depart="1920"><route edges="EdgeW2 EdgeE1"/></vehicle>
	<vehicle id="391" depart="1927"><route edges="EdgeW2 EdgeE1"/></vehicle>
	<vehicle id="392" depart="1936"><route edges="EdgeN2 EdgeS1"/></vehicle>
	<vehicle id="393" depart="1938"><route edges="EdgeW2 EdgeE1"/></vehicle>
	<vehicle id="394" depart="1938"><route edges="EdgeN2 EdgeE1"/></vehicle>
	<vehicle id="395" depart="1940"><route edges="EdgeE2 EdgeW1"/></vehicle>
	<vehicle id="396" depart="1940"><route edges="EdgeW2 EdgeE1"/></vehicle>
	<vehicle id="397" depart="1949"><route edges="EdgeW2 EdgeE1"/></vehicle>
	<vehicle id="398" depart="1949"><route edges="EdgeN2 EdgeS1"/></vehicle>
	<vehicle id="399" depart="1951"><route edges="EdgeE2 EdgeS1"/></vehicle>
	<vehicle id="400" depart="1951"><route edges="EdgeW2 EdgeE1"/></vehicle>
	<vehicle id="401" depart="1959"><route edges="EdgeE2 EdgeW1"/></vehicle>
	<vehicle id="402" depart="1961"><route edges="EdgeS2 EdgeW1"/></vehicle>
	<vehicle id="403" depart="1968"><route edges="EdgeW2 EdgeS1"/></vehicle>
	<vehicle id="404" depart="1975"><route edges="EdgeE2 EdgeS1"/></vehicle>
	<vehicle id="405" depart="1986"><route edges="EdgeN2 EdgeS1"/></vehicle>