<?xml version="1.0" encoding="UTF-8"?>
<routes xmlns:xsi="http://www.w3.org/2001/XMLSchema-instance" xsi:noNamespaceSchemaLocation="http://sumo.dlr.de/xsd/routes_file.xsd">
	<vehicle id="0" depart="14"><route edges="EdgeE2 EdgeS1"/></vehicle>
	<vehicle id="1" depart="15"><route edges="EdgeW2 EdgeN1"/></vehicle>
	<vehicle id="2" depart="17"><route edges="EdgeE2 EdgeN1"/></vehicle>
	<vehicle id="3" depart="22"><route edges="EdgeW2 EdgeE1"/></vehicle>
	<vehicle id="4" depart="24"><route edges="EdgeN2 EdgeW1"/></vehicle>
	<vehicle id="5" depart="26"><route edges="EdgeN2 EdgeW1"/></vehicle>
	<vehicle id="6" depart="34"><route edges="EdgeE2 EdgeW1"/></vehicle>
	<vehicle id="7" depart="39"><route edges="EdgeE2 EdgeW1"/></vehicle>
	<vehicle id="8" depart="53"><route edges="EdgeW2 EdgeS1"/></vehicle>
	<vehicle id="9" depart="54"><route edges="EdgeN2 EdgeE1"/></vehicle>
	<vehicle id="10" depart="61"><route edges="EdgeE2 EdgeS1"/></vehicle>
	<vehicle id="11" depart="62"><route edges="EdgeN2 EdgeE1"/></vehicle>
	<vehicle id="12" depart="107"><route edges="EdgeS2 EdgeE1"/></vehicle>
	<vehicle id="13" depart="116"><route edges="EdgeW2 EdgeE1"/></vehicle>
	<vehicle id="14" depart="122"><route edges="EdgeE2 EdgeN1"/></vehicle>
	<vehicle id="15" depart="122"><route edges="EdgeS2 EdgeN1"/></vehicle>
	<vehicle id="16" depart="130"><route edges="EdgeN2 EdgeE1"/></vehicle>
	<vehicle id="17" depart="138"><route edges="EdgeS2 EdgeE1"/></vehicle>
	<vehicle id="18" depart="142"><route edges="EdgeE2 EdgeW1"/></vehicle>
	<vehicle id="19" depart="163"><route edges="EdgeE2 EdgeW1"/></vehicle>
	<vehicle id="20" depart="165"><route edges="EdgeE2 EdgeN1"/></vehicle>
	<vehicle id="21" depart="165"><route edges="EdgeE2 EdgeW1"/></vehicle>
	<vehicle id="22" depart="167"><route edges="EdgeS2 EdgeN1"/></vehicle>
	<vehicle id="23" depart="170"><route edges="EdgeN2 EdgeW1"/></vehicle>
	<vehicle id="24" depart="189"><route edges="EdgeE2 EdgeW1"/></vehicle>
	<vehicle id="25" depart="190"><route edges="EdgeW2 EdgeE1"/></vehicle>
	<vehicle id="26" depart="196"><route edges="EdgeN2 EdgeS1"/></vehicle>
	<vehicle id="27" depart="209"><route edges="EdgeW2 EdgeE1"/></vehicle>
	<vehicle id="28" depart="230"><route edges="EdgeE2 EdgeS1"/></vehicle>
	<vehicle id="29" depart="235"><route edges="EdgeN2 EdgeE1"/></vehicle>
	<vehicle id="30" depart="246"><route edges="EdgeN2 EdgeW1"/></vehicle>
	<vehicle id="31" depart="277"><route edges="EdgeW2 EdgeN1"/></vehicle>
	<vehicle id="32" depart="279"><route edges="EdgeS2 EdgeW1"/></vehicle>
	<vehicle id="33" depart="287"><route edges="EdgeE2 EdgeW1"/></vehicle>
	<vehicle id="34" depart="295"><route edges="EdgeN2 EdgeW1"/></vehicle>
	<vehicle id="35" depart="302"><route edges="EdgeE2 EdgeW1"/></vehicle>
	<vehicle id="36" depart="336"><route edges="EdgeE2 EdgeW1"/></vehicle>
	<vehicle id="37" depart="339"><route edges="EdgeW2 EdgeE1"/></vehicle>
	<vehicle id="38" depart="349"><route edges="EdgeN2 EdgeW1"/></vehicle>
	<vehicle id="39" depart="355"><route edges="EdgeS2 EdgeW1"/></vehicle>
	<vehicle id="40" depart="358"><route edges="EdgeE2 EdgeW1"/></vehicle>
	<vehicle id="41" depart="373"><route edges="EdgeW2 EdgeE1"/></vehicle>
	<vehicle id="42" depart="378"><route edges="EdgeE2 EdgeW1"/></vehicle>
	<vehicle id="43" depart="388"><route edges="EdgeS2 EdgeE1"/></vehicle>
	<vehicle id="44" depart="388"><route edges="EdgeN2 EdgeS1"/></vehicle>
	<vehicle id="45" depart="403"><route edges="EdgeE2 EdgeS1"/></vehicle>
	<vehicle id="46" depart="418"><route edges="EdgeW2 EdgeS1"/></vehicle>
	<vehicle id="47" depart="487"><route edges="EdgeE2 EdgeW1"/></vehicle>
	<vehicle id="48" depart="488"><route edges="EdgeS2 EdgeW1"/></vehicle>
	<vehicle id="49" depart="490"><route edges="EdgeE2 EdgeW1"/></vehicle>
	<vehicle id="50" depart="492"><route edges="EdgeE2 EdgeW1"/></vehicle>
	<vehicle id="51" depart="496"><route edges="EdgeN2 EdgeE1"/></vehicle>
	<vehicle id="52" depart="497"><route edges="EdgeS2 EdgeW1"/></vehicle>
	<vehicle id="53" depart="528"><route edges="EdgeW2 EdgeS1"/></vehicle>
	<vehicle id="54" depart="544"><route edges="EdgeW2 EdgeE1"/></vehicle>
	<vehicle id="55" depart="548"><route edges="EdgeW2 EdgeE1"/></vehicle>
	<vehicle id="56" depart="549"><route edges="EdgeW2 EdgeS1"/></vehicle>
	<vehicle id="57" depart="552"><route edges="EdgeE2 EdgeW1"/></vehicle>
	<vehicle id="58" depart="557"><route edges="EdgeS2 EdgeN1"/></vehicle>
	<vehicle id="59" depart="562"><route edges="EdgeS2 EdgeE1"/></vehicle>
	<vehicle id="60" depart="583"><route edges="EdgeN2 EdgeS1"/></vehicle>
	<vehicle id="61" depart="602"><route edges="EdgeW2 EdgeE1"/></vehicle>
	<vehicle id="62" depart="605"><route edges="EdgeE2 EdgeS1"/></vehicle>
	<vehicle id="63" depart="621"><route edges="EdgeW2 EdgeE1"/></vehicle>
	<vehicle id="64" depart="622"><route edges="EdgeE2 EdgeW1"/></vehicle>
	<vehicle id="65" depart="626"><route edges="EdgeW2 EdgeE1"/></vehicle>
	<vehicle id="66" depart="632"><route edges="EdgeN2 EdgeE1"/></vehicle>
	<vehicle id="67" depart="634"><route edges="EdgeE2 EdgeW1"/></vehicle>
	<vehicle id="68" depart="639"><route edges="EdgeE2 EdgeS1"/></vehicle>
	<vehicle id="69" depart="640"><route edges="EdgeN2 EdgeW1"/></vehicle>
	<vehicle id="70" depart="643"><route edges="EdgeE2 EdgeS1"/></vehicle>
	<vehicle id="71" depart="653"><route edges="EdgeE2 EdgeN1"/></vehicle>
	<vehicle id="72" depart="670"><route edges="EdgeS2 EdgeE1"/></vehicle>
	<vehicle id="73" depart="672"><route edges="EdgeE2 EdgeW1"/></vehicle>
	<vehicle id="74" depart="681"><route edges="EdgeW2 EdgeE1"/></vehicle>
	<vehicle id="75" depart="685"><route edges="EdgeN2 EdgeS1"/></vehicle>
	<vehicle id="76" depart="713"><route edges="EdgeS2 EdgeW1"/></vehicle>
	<vehicle id="77" depart="713"><route edges="EdgeE2 EdgeW1"/></vehicle>
	<vehicle id="78" depart="714"><route edges="EdgeW2 EdgeE1"/></vehicle>
	<vehicle id="79" depart="734"><route edges="EdgeW2 EdgeS1"/></vehicle>
	<vehicle id="80" depart="740"><route edges="EdgeW2 EdgeE1"/></vehicle>
	<vehicle id="81" depart="740"><route edges="EdgeN2 EdgeS1"/></vehicle>
	<vehicle id="82" depart="749"><route edges="EdgeS2 EdgeE1"/></vehicle>
	<vehicle id="83" depart="751"><route edges="EdgeN2 EdgeW1"/></vehicle>
	<vehicle id="84" depart="759"><route edges="EdgeW2 EdgeE1"/></vehicle>
	<vehicle id="85" depart="766"><route edges="EdgeE2 EdgeW1"/></vehicle>
	<vehicle id="86" depart="772"><route edges="EdgeW2 EdgeE1"/></vehicle>
	<vehicle id="87" depart="785"><route edges="EdgeE2 EdgeW1"/></vehicle>
	<vehicle id="88" depart="787"><route edges="EdgeN2 EdgeE1"/></vehicle>
	<vehicle id="89" depart="801"><route edges="EdgeE2 EdgeW1"/></vehicle>
	<vehicle id="90" depart="804"><route edges="EdgeE2 EdgeW1"/></vehicle>
	<vehicle id="91" depart="810"><route edges="EdgeN2 EdgeE1"/></vehicle>
	<vehicle id="92" depart="819"><route edges="EdgeE2 EdgeW1"/></vehicle>
	<vehicle id="93" depart="822"><route edges="EdgeW2 EdgeE1"/></vehicle>
	<vehicle id="94" depart="833"><route edges="EdgeE2 EdgeW1"/></vehicle>
	<vehicle id="95" depart="833"><route edges="EdgeW2 EdgeS1"/></vehicle>
	<vehicle id="96" depart="841"><route edges="EdgeW2 EdgeE1"/></vehicle>
	<vehicle id="97" depart="841"><route edges="EdgeW2 EdgeE1"/></vehicle>
	<vehicle id="98" depart="850"><route edges="EdgeE2 EdgeW1"/></vehicle>
	<vehicle id="99" depart="862"><route edges="EdgeE2 EdgeS1"/></vehicle>
	<vehicle id="100" depart="863"><route edges="EdgeS2 EdgeE1"/></vehicle>
	<vehicle id="101" depart="877"><route edges="EdgeW2 EdgeE1"/></vehicle>
	<vehicle id="102" depart="884"><route edges="EdgeE2 EdgeW1"/></vehicle>
	<vehicle id="103" depart="888"><route edges="EdgeE2 EdgeW1"/></vehicle>
	<vehicle id="104" depart="891"><route edges="EdgeE2 EdgeW1"/></vehicle>
	<vehicle id="105" depart="893"><route edges="EdgeW2 EdgeS1"/></vehicle>
	<vehicle id="106" depart="893"><route edges="EdgeE2 EdgeW1"/></vehicle>
	<vehicle id="107" depart="893"><route edges="EdgeW2 EdgeE1"/></vehicle>
	<vehicle id="108" depart="894"><route edges="EdgeS2 EdgeW1"/></vehicle>
	<vehicle id="109" depart="895"><route edges="EdgeW2 EdgeE1"/></vehicle>
	<vehicle id="110" depart="895"><route edges="EdgeW2 EdgeE1"/></vehicle>
	<vehicle id="111" depart="900"><route edges="EdgeE2 EdgeN1"/></vehicle>
	<vehicle id="112" depart="903"><route edges="EdgeW2 EdgeE1"/></vehicle>
	<vehicle id="113" depart="907"><route edges="EdgeN2 EdgeE1"/></vehicle>
	<vehicle id="114" depart="908"><route edges="EdgeW2 EdgeE1"/></vehicle>
	<vehicle id="115" depart="909"><route edges="EdgeW2 EdgeE1"/></vehicle>
	<vehicle id="116" depart="909"><route edges="EdgeW2 EdgeE1"/></vehicle>
	<vehicle id="117" depart="910"><route edges="EdgeN2 EdgeS1"/></vehicle>
	<vehicle id="118" depart="913"><route edges="EdgeW2 EdgeE1"/></vehicle>
	<vehicle id="119" depart="916"><route edges="EdgeE2 EdgeW1"/></vehicle>
	<vehicle id="120" depart="917"><route edges="EdgeW2 EdgeE1"/></vehicle>
	<vehicle id="121" depart="924"><route edges="EdgeW2 EdgeE1"/></vehicle>
	<vehicle id="122" depart="931"><route edges="EdgeW2 EdgeE1"/></vehicle>
	<vehicle id="123" depart="936"><route edges="EdgeS2 EdgeN1"/></vehicle>
	<vehicle id="124" depart="939"><route edges="EdgeN2 EdgeW1"/></vehicle>
	<vehicle id="125" depart="942"><route edges="EdgeS2 EdgeN1"/></vehicle>
	<vehicle id="126" depart="943"><route edges="EdgeE2 EdgeN1"/></vehicle>
	<vehicle id="127" depart="944"><route edges="EdgeW2 EdgeE1"/></vehicle>
	<vehicle id="128" depart="948"><route edges="EdgeW2 EdgeN1"/></vehicle>
	<vehicle id="129" depart="955"><route edges="EdgeE2 EdgeW1"/></vehicle>
	<vehicle id="130" depart="960"><route edges="EdgeE2 EdgeW1"/></vehicle>
	<vehicle id="131" depart="965"><route edges="EdgeW2 EdgeE1"/></vehicle>
	<vehicle id="132" depart="966"><route edges="EdgeE2 EdgeW1"/></vehicle>
	<vehicle id="133" depart="979"><route edges="EdgeE2 EdgeS1"/></vehicle>
	<vehicle id="134" depart="996"><route edges="EdgeS2 EdgeW1"/></vehicle>
	<vehicle id="135" depart="997"><route edges="EdgeS2 EdgeW1"/></vehicle>
	<vehicle id="136" depart="1000"><route edges="EdgeS2 EdgeN1"/></vehicle>
	<vehicle id="137" depart="1005"><route edges="EdgeE2 EdgeN1"/></vehicle>
	<vehicle id="138" depart="1006"><route edges="EdgeS2 EdgeW1"/></vehicle>
	<vehicle id="139" depart="1007"><route edges="EdgeW2 EdgeE1"/></vehicle>
	<vehicle id="140" depart="1012"><route edges="EdgeE2 EdgeS1"/></vehicle>
	<vehicle id="141" depart="1013"><route edges="EdgeS2 EdgeN1"/></vehicle>
	<vehicle id="142" depart="1021"><route edges="EdgeE2 EdgeW1"/></vehicle>
	<vehicle id="143" depart="1022"><route edges="EdgeW2 EdgeS1"/></vehicle>
	<vehicle id="144" depart="1025"><route edges="EdgeE2 EdgeW1"/></vehicle>
	<vehicle id="145" depart="1043"><route edges="EdgeN2 EdgeW1"/></vehicle>
	<vehicle id="146" depart="1046"><route edges="EdgeE2 EdgeW1"/></vehicle>
	<vehicle id="147" depart="1047"><route edges="EdgeN2 EdgeS1"/></vehicle>
	<vehicle id="148" depart="1055"><route edges="EdgeS2 EdgeE1"/></vehicle>
	<vehicle id="149" depart="1057"><route edges="EdgeN2 EdgeE1"/></vehicle>
	<vehicle id="150" depart="1071"><route edges="EdgeS2 EdgeW1"/></vehicle>
	<vehicle id="151" depart="1074"><route edges="EdgeE2 EdgeN1"/></vehicle>
	<vehicle id="152" depart="1077"><route edges="EdgeS2 EdgeE1"/></vehicle>
	<vehicle id="153" depart="1079"><route edges="EdgeW2 EdgeE1"/></vehicle>
	<vehicle id="154" depart="1083"><route edges="EdgeN2 EdgeW1"/></vehicle>
	<vehicle id="155" depart="1091"><route edges="EdgeE2 EdgeW1"/></vehicle>
	<vehicle id="156" depart="1100"><route edges="EdgeS2 EdgeN1"/></vehicle>
	<vehicle id="157" depart="1107"><route edges="EdgeE2 EdgeW1"/></vehicle>
	<vehicle id="158" depart="1112"><route edges="EdgeW2 EdgeN1"/></vehicle>
	<vehicle id="159" depart="1112"><route edges="EdgeE2 EdgeW1"/></vehicle>
	<vehicle id="160" depart="1114"><route edges="EdgeW2 EdgeN1"/></vehicle>
	<vehicle id="161" depart="1115"><route edges="EdgeE2 EdgeW1"/></vehicle>
	<vehicle id="162" depart="1117"><route edges="EdgeE2 EdgeW1"/></vehicle>
	<vehicle id="163" depart="1122"><route edges="EdgeW2 EdgeE1"/></vehicle>
	<vehicle id="164" depart="1126"><route edges="EdgeE2 EdgeN1"/></vehicle>
	<vehicle id="165" depart="1130"><route edges="EdgeN2 EdgeW1"/></vehicle>
	<vehicle id="166" depart="1142"><route edges="EdgeN2 EdgeW1"/></vehicle>
	<vehicle id="167" depart="1147"><route edges="EdgeW2 EdgeE1"/></vehicle>
	<vehicle id="168" depart="1154"><route edges="EdgeN2 EdgeW1"/></vehicle>
	<vehicle id="169" depart="1161"><route edges="EdgeE2 EdgeW1"/></vehicle>
	<vehicle id="170" depart="1166"><route edges="EdgeW2 EdgeE1"/></vehicle>
	<vehicle id="171" depart="1179"><route edges="EdgeW2 EdgeS1"/></vehicle>
	<vehicle id="172" depart="1186"><route edges="EdgeE2 EdgeW1"/></vehicle>
	<vehicle id="173" depart="1191"><route edges="EdgeW2 EdgeS1"/></vehicle>
	<vehicle id="174" depart="1194"><route edges="EdgeE2 EdgeW1"/></vehicle>
	<vehicle id="175" depart="1200"><route edges="EdgeE2 EdgeW1"/></vehicle>
	<vehicle id="176" depart="1211"><route edges="EdgeW2 EdgeE1"/></vehicle>
	<vehicle id="177" depart="1222"><route edges="EdgeE2 EdgeW1"/></vehicle>
	<vehicle id="178" depart="1241"><route edges="EdgeE2 EdgeS1"/></vehicle>
	<vehicle id="179" depart="1262"><route edges="EdgeN2 EdgeW1"/></vehicle>
	<vehicle id="180" depart="1263"><route edges="EdgeS2 EdgeN1"/></vehicle>
	<vehicle id="181" depart="1264"><route edges="EdgeN2 EdgeE1"/></vehicle>
	<vehicle id="182" depart="1276"><route edges="EdgeE2 EdgeW1"/></vehicle>
	<vehicle id="183" depart="1286"><route edges="EdgeN2 EdgeE1"/></vehicle>
	<vehicle id="184" depart="1293"><route edges="EdgeE2 EdgeW1"/></vehicle>
	<vehicle id="185" depart="1296"><route edges="EdgeW2 EdgeE1"/></vehicle>
	<vehicle id="186" depart="1300"><route edges="EdgeE2 EdgeW1"/></vehicle>
	<vehicle id="187" depart="1300"><route edges="EdgeS2 EdgeW1"/></vehicle>
	<vehicle id="188" depart="1312"><route edges="EdgeW2 EdgeE1"/></vehicle>
	<vehicle id="189" depart="1314"><route edges="EdgeW2 EdgeE1"/></vehicle>
	<vehicle id="190" depart="1324"><route edges="EdgeW2 EdgeE1"/></vehicle>
	<vehicle id="191" depart="1326"><route edges="EdgeW2 EdgeE1"/></vehicle>
	<vehicle id="192" depart="1330"><route edges="EdgeN2 EdgeW1"/></vehicle>
	<vehicle id="193" depart="1332"><route edges="EdgeW2 EdgeE1"/></vehicle>
	<vehicle id="194" depart="1336"><route edges="EdgeN2 EdgeE1"/></vehicle>
	<vehicle id="195" depart="1344"><route edges="EdgeE2 EdgeW1"/></vehicle>
	<vehicle id="196" depart="1349"><route edges="EdgeE2 EdgeW1"/></vehicle>
	<vehicle id="197" depart="1357"><route edges="EdgeW2 EdgeE1"/></vehicle>
	<vehicle id="198" depart="1363"><route edges="EdgeE2 EdgeW1"/></vehicle>
	<vehicle id="199" depart="1368"><route edges="EdgeW2 EdgeE1"/></vehicle>
	<vehicle id="200" depart="1376"><route edges="EdgeE2 EdgeW1"/></vehicle>
	<vehicle id="201" depart="1377"><route edges="EdgeE2 EdgeW1"/></vehicle>
	<vehicle id="202" depart="1390"><route edges="EdgeW2 EdgeN1"/></vehicle>
	<vehicle id="203" depart="1392"><route edges="EdgeS2 EdgeW1"/></vehicle>
	<vehicle id="204" depart="1397"><route edges="EdgeW2 EdgeE1"/></vehicle>
	<vehicle id="205" depart="1402"><route edges="EdgeS2 EdgeW1"/></vehicle>
	<vehicle id="206" depart="1405"><route edges="EdgeE2 EdgeW1"/></vehicle>
	<vehicle id="207" depart="1407"><route edges="EdgeS2 EdgeN1"/></vehicle>
	<vehicle id="208" depart="1410"><route edges="EdgeW2 EdgeE1"/></vehicle>
	<vehicle id="209" depart="1410"><route edges="EdgeE2 EdgeW1"/></vehicle>
	<vehicle id="210" depart="1430"><route edges="EdgeW2 EdgeE1"/></vehicle>
	<vehicle id="211" depart="1431"><route edges="EdgeE2 EdgeS1"/></vehicle>
	<vehicle id="212" depart="1434"><route edges="EdgeW2 EdgeE1"/></vehicle>
	<vehicle id="213" depart="1435"><route edges="EdgeN2 EdgeE1"/></vehicle>
	<vehicle id="214" depart="1440"><route edges="EdgeE2 EdgeW1"/></vehicle>
	<vehicle id="215" depart="1446"><route edges="EdgeW2 EdgeE1"/></vehicle>
	<vehicle id="216" depart="1449"><route edges="EdgeW2 EdgeN1"/></vehicle>
	<vehicle id="217" depart="1453"><route edges="EdgeE2 EdgeN1"/></vehicle>
	<vehicle id="218" depart="1462"><route edges="EdgeW2 EdgeN1"/></vehicle>
	<vehicle id="219" depart="1468"><route edges="EdgeW2 EdgeE1"/></vehicle>
	<vehicle id="220" depart="1469"><route edges="EdgeW2 EdgeE1"/></vehicle>
	<vehicle id="221" depart="1473"><route edges="EdgeW2 EdgeE1"/></vehicle>
	<vehicle id="222" depart="1474"><route edges="EdgeN2 EdgeE1"/></vehicle>
	<vehicle id="223" depart="1477"><route edges="EdgeE2 EdgeN1"/></vehicle>
	<vehicle id="224" depart="1482"><route edges="EdgeN2 EdgeS1"/></vehicle>
	<vehicle id="225" depart="1487"><route edges="EdgeN2 EdgeS1"/></vehicle>
	<vehicle id="226" depart="1494"><route edges="EdgeE2 EdgeW1"/></vehicle>
	<vehicle id="227" depart="1497"><route edges="EdgeE2 EdgeW1"/></vehicle>
	<vehicle id="228" depart="1500"><route edges="EdgeE2 EdgeW1"/></vehicle>
	<vehicle id="229" depart="1501"><route edges="EdgeE2 EdgeW1"/></vehicle>
	<vehicle id="230" depart="1508"><route edges="EdgeS2 EdgeN1"/></vehicle>
	<vehicle id="231" depart="1513"><route edges="EdgeW2 EdgeE1"/></vehicle>
	<vehicle id="232" depart="1514"><route edges="EdgeS2 EdgeN1"/></vehicle>
	<vehicle id="233" depart="1517"><route edges="EdgeS2 EdgeW1"/></vehicle>
	<vehicle id="234" depart="1532"><route edges="EdgeW2 EdgeE1"/></vehicle>
	<vehicle id="235" depart="1533"><route edges="EdgeE2 EdgeW1"/></vehicle>
	<vehicle id="236" depart="1539"><route edges="EdgeW2 EdgeE1"/></vehicle>
	<vehicle id="237" depart="1541"><route edges="EdgeN2 EdgeW1"/></vehicle>
	<vehicle id="238" depart="1549"><route edges="EdgeW2 EdgeE1"/></vehicle>
	<vehicle id="239" depart="1551"><route edges="EdgeW2 EdgeE1"/></vehicle>
	<vehicle id="240" depart="1552"><route edges="EdgeW2 EdgeN1"/></vehicle>
	<vehicle id="241" depart="1555"><route edges="EdgeS2 EdgeW1"/></vehicle>
	<vehicle id="242" depart="1562"><route edges="EdgeE2 EdgeW1"/></vehicle>
	<vehicle id="243" depart="1564"><route edges="EdgeW2 EdgeE1"/></vehicle>
	<vehicle id="244" depart="1572"><route edges="EdgeE2 EdgeW1"/></vehicle>
	<vehicle id="245" depart="1572"><route edges="EdgeW2 EdgeE1"/></vehicle>
	<vehicle id="246" depart="1578"><route edges="EdgeN2 EdgeW1"/></vehicle>
	<vehicle id="247" depart="1579"><route edges="EdgeW2 EdgeS1"/></vehicle>
	<vehicle id="248" depart="1582"><route edges="EdgeN2 EdgeW1"/></vehicle>
	<vehicle id="249" depart="1588"><route edges="EdgeW2 EdgeE1"/></vehicle>
	<vehicle id="250" depart="1590"><route edges="EdgeS2 EdgeE1"/></vehicle>
	<vehicle id="251" depart="1593"><route edges="EdgeW2 EdgeE1"/></vehicle>
	<vehicle id="252" depart="1595"><route edges="EdgeW2 EdgeS1"/></vehicle>
	<vehicle id="253" depart="1600"><route edges="EdgeE2 EdgeW1"/></vehicle>
	<vehicle id="254" depart="1603"><route edges="EdgeW2 EdgeN1"/></vehicle>
	<vehicle id="255" depart="1603"><route edges="EdgeW2 EdgeE1"/></vehicle>
	<vehicle id="256" depart="1608"><route edges="EdgeE2 EdgeS1"/></vehicle>
	<vehicle id="257" depart="1612"><route edges="EdgeN2 EdgeE1"/></vehicle>
	<vehicle id="258" depart="1615"><route edges="EdgeE2 EdgeW1"/></vehicle>
	<vehicle id="259" depart="1618"><route edges="EdgeE2 EdgeW1"/></vehicle>
	<vehicle id="260" depart="1621"><route edges="EdgeW2 EdgeN1"/></vehicle>
	<vehicle id="261" depart="1626"><route edges="EdgeE2 EdgeW1"/></vehicle>
	<vehicle id="262" depart="1626"><route edges="EdgeE2 EdgeW1"/></vehicle>
	<vehicle id="263" depart="1631"><route edges="EdgeW2 EdgeE1"/></vehicle>
	<vehicle id="264" depart="1631"><route edges="EdgeW2 EdgeE1"/></vehicle>
	<vehicle id="265" depart="1639"><route edges="EdgeW2 EdgeN1"/></vehicle>
	<vehicle id="266" depart="1643"><route edges="EdgeW2 EdgeN1"/></vehicle>
	<vehicle id="267" depart="1646"><route edges="EdgeS2 EdgeE1"/></vehicle>
	<vehicle id="268" depart="1648"><route edges="EdgeW2 EdgeE1"/></vehicle>
	<vehicle id="269" depart="1656"><route edges="EdgeS2 EdgeW1"/></vehicle>
	<vehicle id="270" depart="1656"><route edges="EdgeS2 EdgeE1"/></vehicle>
	<vehicle id="271" depart="1659"><route edges="EdgeS2 EdgeW1"/></vehicle>
	<vehicle id="272" depart="1665"><route edges="EdgeE2 EdgeW1"/></vehicle>
	<vehicle id="273" depart="1673"><route edges="EdgeS2 EdgeW1"/></vehicle>
	<vehicle id="274" depart="1682"><route edges="EdgeE2 EdgeW1"/></vehicle>
	<vehicle id="275" depart="1684"><route edges="EdgeW2 EdgeE1"/></vehicle>
	<vehicle id="276" depart="1686"><route edges="EdgeS2 EdgeN1"/></vehicle>
	<vehicle id="277" depart="1693"><route edges="EdgeW2 EdgeE1"/></vehicle>
	<vehicle id="278" depart="1696"><route edges="EdgeE2 EdgeW1"/></vehicle>
	<vehicle id="279" depart="1696"><route edges="EdgeW2 EdgeS1"/></vehicle>
	<vehicle id="280" depart="1705"><route edges="EdgeN2 EdgeS1"/></vehicle>
	<vehicle id="281" depart="1710"><route edges="EdgeW2 EdgeE1"/></vehicle>
	<vehicle id="282" depart="1716"><route edges="EdgeW2 EdgeE1"/></vehicle>
	<vehicle id="283" depart="1718"><route edges="EdgeS2 EdgeE1"/></vehicle>
	<vehicle id="284" depart="1726"><route edges="EdgeN2 EdgeS1"/></vehicle>
	<vehicle id="285" depart="1730"><route edges="EdgeE2 EdgeN1"/></vehicle>
	<vehicle id="286" depart="1744"><route edges="EdgeE2 EdgeW1"/></vehicle>
	<vehicle id="287" depart="1750"><route edges="EdgeE2 EdgeW1"/></vehicle>
	<vehicle id="288" depart="1768"><route edges="EdgeE2 EdgeW1"/></vehicle>
	<vehicle id="289" depart="1770"><route edges="EdgeS2 EdgeN1"/></vehicle>
	<vehicle id="290" depart="1771"><route edges="EdgeW2 EdgeS1"/></vehicle>
	<vehicle id="291" depart="1780"><route edges="EdgeE2 EdgeW1"/></vehicle>
	<vehicle id="292" depart="1792"><route edges="EdgeE2 EdgeS1"/></vehicle>
	<vehicle id="293" depart="1792"><route edges="EdgeE2 EdgeS1"/></vehicle>
	<vehicle id="294" depart="1793"><route edges="EdgeW2 EdgeE1"/></vehicle>
	<vehicle id="295" depart="1794"><route edges="EdgeW2 EdgeE1"/></vehicle>
	<vehicle id="296" depart="1798"><route edges="EdgeE2 EdgeW1"/></vehicle>
	<vehicle id="297" depart="1804"><route edges="EdgeW2 EdgeN1"/></vehicle>
	<vehicle id="298" depart="1808"><route edges="EdgeE2 EdgeS1"/></vehicle>
	<vehicle id="299" depart="1809"><route edges="EdgeS2 EdgeW1"/></vehicle>
	<vehicle id="300" depart="1814"><route edges="EdgeW2 EdgeE1"/></vehicle>
	<vehicle id="301" depart="1828"><route edges="EdgeN2 EdgeW1"/></vehicle>
	<vehicle id="302" depart="1836"><route edges="EdgeE2 EdgeW1"/></vehicle>
	<vehicle id="303" depart="1837"><route edges="EdgeE2 EdgeW1"/></vehicle>
	<vehicle id="304" depart="1839"><route edges="EdgeN2 EdgeW1"/></vehicle>
	<vehicle id="305" depart="1851"><route edges="EdgeE2 EdgeS1"/></vehicle>
	<vehicle id="306" depart="1852"><route edges="EdgeE2 EdgeS1"/></vehicle>
	<vehicle id="307" depart="1854"><route edges="EdgeE2 EdgeW1"/></vehicle>
	<vehicle id="308" depart="1854"><route edges="EdgeE2 EdgeW1"/></vehicle>
	<vehicle id="309" depart="1855"><route edges="EdgeE2 EdgeW1"/></vehicle>
	<vehicle id="310" depart="1859"><route edges="EdgeE2 EdgeW1"/></vehicle>
	<vehicle id="311" depart="1859"><route edges="EdgeE2 EdgeS1"/></vehicle>
	<vehicle id="312" depart="1882"><route edges="EdgeE2 EdgeW1"/></vehicle>
	<vehicle id="313" depart="1906"><route edges="EdgeW2 EdgeE1"/></vehicle>
	<vehicle id="314" depart="1906"><route edges="EdgeW2 EdgeE1"/></vehicle>
	<vehicle id="315" depart="1913"><route edges="EdgeE2 EdgeS1"/></vehicle>
	<vehicle id="316" depart="1918"><route edges="EdgeW2 EdgeE1"/></vehicle>
	<vehicle id="317" depart="1919"><route edges="EdgeE2 EdgeW1"/></vehicle>
	<vehicle id="318" depart="1924"><route edges="EdgeE2 EdgeW1"/></vehicle>
	<vehicle id="319" depart="1925"><route edges="EdgeE2 EdgeN1"/></vehicle>
	<vehicle id="320" depart="1933"><route edges="EdgeN2 EdgeS1"/></vehicle>
	<vehicle id="321" depart="1937"><route edges="EdgeE2 EdgeW1"/></vehicle>
	<vehicle id="322" depart="1938"><route edges="EdgeS2 EdgeE1"/></vehicle>
	<vehicle id="323" depart="1939"><route edges="EdgeE2 EdgeS1"/></vehicle>
	<vehicle id="324" depart="1941"><route edges="EdgeE2 EdgeW1"/></vehicle>
	<vehicle id="325" depart="1942"><route edges="EdgeN2 EdgeE1"/></vehicle>
	<vehicle id="326" depart="1943"><route edges="EdgeW2 EdgeE1"/></vehicle>
	<vehicle id="327" depart="1944"><route edges="EdgeW2 EdgeE1"/></vehicle>
	<vehicle id="328" depart="1945"><route edges="EdgeW2 EdgeE1"/></vehicle>
	<vehicle id="329" depart="1951"><route edges="EdgeE2 EdgeN1"/></vehicle>
	<vehicle id="330" depart="1959"><route edges="EdgeW2 EdgeE1"/></vehicle>
	<vehicle id="331" depart="1963"><route edges="EdgeW2 EdgeE1"/></vehicle>
	<vehicle id="332" depart="1967"><route edges="EdgeE2 EdgeW1"/></vehicle>
	<vehicle id="333" depart="1972"><route edges="EdgeW2 EdgeS1"/></vehicle>
	<vehicle id="334" depart="1972"><route edges="EdgeW2 EdgeS1"/></vehicle>
	<vehicle id="335" depart="1974"><route edges="EdgeW2 EdgeE1"/></vehicle>
	<vehicle id="336" depart="1975"><route edges="EdgeN2 EdgeE1"/></vehicle>
	<vehicle id="337" depart="1979"><route edges="EdgeW2 EdgeE1"/></vehicle>
	<vehicle id="338" depart="1983"><route edges="EdgeE2 EdgeS1"/></vehicle>
	<vehicle id="339" depart="2003"><route edges="EdgeW2 EdgeE1"/></vehicle>
	<vehicle id="340" depart="2007"><route edges="EdgeE2 EdgeW1"/></vehicle>
	<vehicle id="341" depart="2008"><route edges="EdgeE2 EdgeS1"/></vehicle>
	<vehicle id="342" depart="2008"><route edges="EdgeE2 EdgeW1"/></vehicle>
	<vehicle id="343" depart="2014"><route edges="EdgeN2 EdgeW1"/></vehicle>
	<vehicle id="344" depart="2018"><route edges="EdgeE2 EdgeW1"/></vehicle>
	<vehicle id="345" depart="2020"><route edges="EdgeS2 EdgeE1"/></vehicle>
	<vehicle id="346" depart="2020"><route edges="EdgeW2 EdgeS1"/></vehicle>
	<vehicle id="347" depart="2027"><route edges="EdgeW2 EdgeS1"/></vehicle>
	<vehicle id="348" depart="2034"><route edges="EdgeW2 EdgeE1"/></vehicle>
	<vehicle id="349" depart="2037"><route edges="EdgeW2 EdgeN1"/></vehicle>
	<vehicle id="350" depart="2047"><route edges="EdgeE2 EdgeW1"/></vehicle>
	<vehicle id="351" depart="2054"><route edges="EdgeS2 EdgeN1"/></vehicle>
	<vehicle id="352" depart="2058"><route edges="EdgeE2 EdgeW1"/></vehicle>
	<vehicle id="353" depart="2061"><route edges="EdgeW2 EdgeE1"/></vehicle>
	<vehicle id="354" depart="2068"><route edges="EdgeW2 EdgeE1"/></vehicle>
	<vehicle id="355" depart="2074"><route edges="EdgeE2 EdgeN1"/></vehicle>
	<vehicle id="356" depart="2090"><route edges="EdgeW2 EdgeS1"/></vehicle>
	<vehicle id="357" depart="2090"><route edges="EdgeE2 EdgeW1"/></vehicle>
	<vehicle id="358" depart="2098"><route edges="EdgeS2 EdgeN1"/></vehicle>
	<vehicle id="359" depart="2101"><route edges="EdgeE2 EdgeW1"/></vehicle>
	<vehicle id="360" depart="2101"><route edges="EdgeW2 EdgeE1"/></vehicle>
	<vehicle id="361" depart="2102"><route edges="EdgeW2 EdgeE1"/></vehicle>
	<vehicle id="362" depart="2103"><route edges="EdgeW2 EdgeE1"/></vehicle>
	<vehicle id="363" depart="2103"><route edges="EdgeE2 EdgeW1"/></vehicle>
	<vehicle id="364" depart="2108"><route edges="EdgeW2 EdgeS1"/></vehicle>
	<vehicle id="365" depart="2111"><route edges="EdgeS2 EdgeW1"/></vehicle>
	<vehicle id="366" depart="2112"><route edges="EdgeW2 EdgeE1"/></vehicle>
	<vehicle id="367" depart="2114"><route edges="EdgeN2 EdgeW1"/></vehicle>
	<vehicle id="368" depart="2115"><route edges="EdgeE2 EdgeW1"/></vehicle>
	<vehicle id="369" depart="2117"><route edges="EdgeN2 EdgeE1"/></vehicle>
	<vehicle id="370" depart="2125"><route edges="EdgeE2 EdgeN1"/></vehicle>
	<vehicle id="371" depart="2126"><route edges="EdgeW2 EdgeN1"/></vehicle>
	<vehicle id="372" depart="2133"><route edges="EdgeW2 EdgeE1"/></vehicle>
	<vehicle id="373" depart="2138"><route edges="EdgeE2 EdgeS1"/></vehicle>
	<vehicle id="374" depart="2151"><route edges="EdgeW2 EdgeE1"/></vehicle>
	<vehicle id="375" depart="2155"><route edges="EdgeE2 EdgeW1"/></vehicle>
	<vehicle id="376" depart="2164"><route edges="EdgeE2 EdgeS1"/></vehicle>
	<vehicle id="377" depart="2165"><route edges="EdgeW2 EdgeS1"/></vehicle>
	<vehicle id="378" depart="2167"><route edges="EdgeS2 EdgeE1"/></vehicle>
	<vehicle id="379" depart="2171"><route edges="EdgeW2 EdgeE1"/></vehicle>
	<vehicle id="380" depart="2173"><route edges="EdgeE2 EdgeN1"/></vehicle>
	<vehicle id="381" depart="2175"><route edges="EdgeS2 EdgeW1"/></vehicle>
	<vehicle id="382" depart="2175"><route edges="EdgeW2 EdgeE1"/></vehicle>
	<vehicle id="383" depart="2178"><route edges="EdgeE2 EdgeW1"/></vehicle>
	<vehicle id="384" depart="2181"><route edges="EdgeN2 EdgeW1"/></vehicle>
	<vehicle id="385" depart="2188"><route edges="EdgeW2 EdgeE1"/></vehicle>
	<vehicle id="386" depart="2189"><route edges="EdgeE2 EdgeW1"/></vehicle>
	<vehicle id="387" depart="2191"><route edges="EdgeS2 EdgeW1"/></vehicle>
	<vehicle id="388" depart="2197"><route edges="EdgeW2 EdgeE1"/></vehicle>
	<vehicle id="389" depart="2202"><route edges="EdgeE2 EdgeW1"/></vehicle>
	<vehicle id="390" depart="2203"><route edges="EdgeE2 EdgeW1"/></vehicle>
	<vehicle id="391" depart="2205"><route edges="EdgeW2 EdgeE1"/></vehicle>
	<vehicle id="392" depart="2208"><route edges="EdgeE2 EdgeN1"/></vehicle>
	<vehicle id="393" depart="2210"><route edges="EdgeW2 EdgeE1"/></vehicle>
	<vehicle id="394" depart="2215"><route edges="EdgeE2 EdgeW1"/></vehicle>
	<vehicle id="395" depart="2216"><route edges="EdgeN2 EdgeE1"/></vehicle>
	<vehicle id="396" depart="2220"><route edges="EdgeW2 EdgeE1"/></vehicle>
	<vehicle id="397" depart="2228"><route edges="EdgeS2 EdgeN1"/></vehicle>
	<vehicle id="398" depart="2230"><route edges="EdgeE2 EdgeW1"/></vehicle>
	<vehicle id="399" depart="2234"><route edges="EdgeW2 EdgeE1"/></vehicle>
	<vehicle id="400" depart="2236"><route edges="EdgeN2 EdgeW1"/></vehicle>
	<vehicle id="401" depart="2246"><route edges="EdgeN2 EdgeW1"/></vehicle>
	<vehicle id="402" depart="2247"><route edges="EdgeS2 EdgeN1"/></vehicle>
	<vehicle id="403" depart="2249"><route edges="EdgeW2 EdgeE1"/></vehicle>
	<vehicle id="404" depart="2249"><route edges="EdgeE2 EdgeS1"/></vehicle>
	<vehicle id="405" depart="2255"><route edges="EdgeW2 EdgeE1"/></vehicle>