<?xml version="1.0" encoding="UTF-8"?>
<routes xmlns:xsi="http://www.w3.org/2001/XMLSchema-instance" xsi:noNamespaceSchemaLocation="http://sumo.dlr.de/xsd/routes_file.xsd">
	<vehicle id="0" depart="27"><route edges="EdgeS2 EdgeN1"/></vehicle>
	<vehicle id="1" depart="29"><route edges="EdgeN2 EdgeS1"/></vehicle>
	<vehicle id="2" depart="49"><route edges="EdgeN2 EdgeS1"/></vehicle>
	<vehicle id="3" depart="58"><route edges="EdgeN2 EdgeW1"/></vehicle>
	<vehicle id="4" depart="62"><route edges="EdgeS2 EdgeN1"/></vehicle>
	<vehicle id="5" depart="65"><route edges="EdgeN2 EdgeE1"/></vehicle>
	<vehicle id="6" depart="78"><route edges="EdgeS2 EdgeW1"/></vehicle>
	<vehicle id="7" depart="82"><route edges="EdgeS2 EdgeW1"/></vehicle>
	<vehicle id="8" depart="83"><route edges="EdgeE2 EdgeN1"/></vehicle>
	<vehicle id="9" depart="95"><route edges="EdgeN2 EdgeE1"/></vehicle>
	<vehicle id="10" depart="106"><route edges="EdgeW2 EdgeN1"/></vehicle>
	<vehicle id="11" depart="107"><route edges="EdgeE2 EdgeS1"/></vehicle>
	<vehicle id="12" depart="118"><route edges="EdgeN2 EdgeS1"/></vehicle>
	<vehicle id="13" depart="119"><route edges="EdgeW2 EdgeS1"/></vehicle>
	<vehicle id="14" depart="120"><route edges="EdgeE2 EdgeN1"/></vehicle>
	<vehicle id="15" depart="123"><route edges="EdgeE2 EdgeW1"/></vehicle>
	<vehicle id="16" depart="124"><route edges="EdgeS2 EdgeW1"/></vehicle>
	<vehicle id="17" depart="134"><route edges="EdgeS2 EdgeW1"/></vehicle>
	<vehicle id="18" depart="147"><route edges="EdgeS2 EdgeW1"/></vehicle>
	<vehicle id="19" depart="164"><route edges="EdgeW2 EdgeS1"/></vehicle>
	<vehicle id="20" depart="172"><route edges="EdgeE2 EdgeW1"/></vehicle>
	<vehicle id="21" depart="179"><route edges="EdgeE2 EdgeS1"/></vehicle>
	<vehicle id="22" depart="199"><route edges="EdgeS2 EdgeN1"/></vehicle>
	<vehicle id="23" depart="204"><route edges="EdgeN2 EdgeE1"/></vehicle>
	<vehicle id="24" depart="206"><route edges="EdgeS2 EdgeN1"/></vehicle>
	<vehicle id="25" depart="209"><route edges="EdgeE2 EdgeN1"/></vehicle>
	<vehicle id="26" depart="210"><route edges="EdgeN2 EdgeW1"/></vehicle>
	<vehicle id="27" depart="215"><route edges="EdgeE2 EdgeS1"/></vehicle>
	<vehicle id="28" depart="225"><route edges="EdgeN2 EdgeE1"/></vehicle>
	<vehicle id="29" depart="229"><route edges="EdgeS2 EdgeN1"/></vehicle>
	<vehicle id="30" depart="234"><route edges="EdgeN2 EdgeS1"/></vehicle>
	<vehicle id="31" depart="240"><route edges="EdgeE2 EdgeN1"/></vehicle>
	<vehicle id="32" depart="249"><route edges="EdgeW2 EdgeN1"/></vehicle>
	<vehicle id="33" depart="250"><route edges="EdgeE2 EdgeS1"/></vehicle>
	<vehicle id="34" depart="253"><route edges="EdgeN2 EdgeW1"/></vehicle>
	<vehicle id="35" depart="273"><route edges="EdgeN2 EdgeS1"/></vehicle>
	<vehicle id="36" depart="289"><route edges="EdgeW2 EdgeE1"/></vehicle>
	<vehicle id="37" depart="297"><route edges="EdgeS2 EdgeW1"/></vehicle>
	<vehicle id="38" depart="300"><route edges="EdgeN2 EdgeW1"/></vehicle>
	<vehicle id="39" depart="302"><route edges="EdgeS2 EdgeW1"/></vehicle>
	<vehicle id="40" depart="315"><route edges="EdgeS2 EdgeE1"/></vehicle>
	<vehicle id="41" depart="318"><route edges="EdgeN2 EdgeS1"/></vehicle>
	<vehicle id="42" depart="336"><route edges="EdgeW2 EdgeN1"/></vehicle>
	<vehicle id="43" depart="338"><route edges="EdgeE2 EdgeW1"/></vehicle>
	<vehicle id="44" depart="340"><route edges="EdgeS2 EdgeW1"/></vehicle>
	<vehicle id="45" depart="340"><route edges="EdgeE2 EdgeN1"/></vehicle>
	<vehicle id="46" depart="354"><route edges="EdgeN2 EdgeW1"/></vehicle>
	<vehicle id="47" depart="373"><route edges="EdgeW2 EdgeE1"/></vehicle>
	<vehicle id="48" depart="383"><route edges="EdgeW2 EdgeN1"/></vehicle>
	<vehicle id="49" depart="391"><route edges="EdgeE2 EdgeN1"/></vehicle>
	<vehicle id="50" depart="392"><route edges="EdgeE2 EdgeN1"/></vehicle>
	<vehicle id="51" depart="399"><route edges="EdgeN2 EdgeS1"/></vehicle>
	<vehicle id="52" depart="404"><route edges="EdgeW2 EdgeE1"/></vehicle>
	<vehicle id="53" depart="409"><route edges="EdgeS2 EdgeW1"/></vehicle>
	<vehicle id="54" depart="425"><route edges="EdgeS2 EdgeW1"/></vehicle>
	<vehicle id="55" depart="435"><route edges="EdgeW2 EdgeN1"/></vehicle>
	<vehicle id="56" depart="447"><route edges="EdgeW2 EdgeE1"/></vehicle>
	<vehicle id="57" depart="452"><route edges="EdgeE2 EdgeS1"/></vehicle>
	<vehicle id="58" depart="455"><route edges="EdgeN2 EdgeS1"/></vehicle>
	<vehicle id="59" depart="462"><route edges="EdgeE2 EdgeW1"/></vehicle>
	<vehicle id="60" depart="469"><route edges="EdgeW2 EdgeE1"/></vehicle>
	<vehicle id="61" depart="469"><route edges="EdgeE2 EdgeN1"/></vehicle>
	<vehicle id="62" depart="477"><route edges="EdgeS2 EdgeE1"/></vehicle>
	<vehicle id="63" depart="484"><route edges="EdgeN2 EdgeS1"/></vehicle>
	<vehicle id="64" depart="498"><route edges="EdgeN2 EdgeW1"/></vehicle>
	<vehicle id="65" depart="505"><route edges="EdgeS2 EdgeE1"/></vehicle>
	<vehicle id="66" depart="506"><route edges="EdgeS2 EdgeW1"/></vehicle>
	<vehicle id="67" depart="522"><route edges="EdgeE2 EdgeW1"/></vehicle>
	<vehicle id="68" depart="527"><route edges="EdgeS2 EdgeN1"/></vehicle>
	<vehicle id="69" depart="534"><route edges="EdgeE2 EdgeW1"/></vehicle>
	<vehicle id="70" depart="548"><route edges="EdgeS2 EdgeE1"/></vehicle>
	<vehicle id="71" depart="554"><route edges="EdgeS2 EdgeE1"/></vehicle>
	<vehicle id="72" depart="558"><route edges="EdgeW2 EdgeN1"/></vehicle>
	<vehicle id="73" depart="569"><route edges="EdgeN2 EdgeW1"/></vehicle>
	<vehicle id="74" depart="582"><route edges="EdgeW2 EdgeS1"/></vehicle>
	<vehicle id="75" depart="598"><route edges="EdgeE2 EdgeW1"/></vehicle>
	<vehicle id="76" depart="607"><route edges="EdgeE2 EdgeW1"/></vehicle>
	<vehicle id="77" depart="629"><route edges="EdgeN2 EdgeW1"/></vehicle>
	<vehicle id="78" depart="635"><route edges="EdgeS2 EdgeN1"/></vehicle>
	<vehicle id="79" depart="662"><route edges="EdgeE2 EdgeS1"/></vehicle>
	<vehicle id="80" depart="664"><route edges="EdgeE2 EdgeS1"/></vehicle>
	<vehicle id="81" depart="672"><route edges="EdgeN2 EdgeS1"/></vehicle>
	<vehicle id="82" depart="684"><route edges="EdgeN2 EdgeS1"/></vehicle>
	<vehicle id="83" depart="693"><route edges="EdgeS2 EdgeN1"/></vehicle>
	<vehicle id="84" depart="694"><route edges="EdgeW2 EdgeE1"/></vehicle>
	<vehicle id="85" depart="702"><route edges="EdgeE2 EdgeW1"/></vehicle>
	<vehicle id="86" depart="703"><route edges="EdgeW2 EdgeN1"/></vehicle>
	<vehicle id="87" depart="706"><route edges="EdgeN2 EdgeE1"/></vehicle>
	<vehicle id="88" depart="708"><route edges="EdgeN2 EdgeS1"/></vehicle>
	<vehicle id="89" depart="710"><route edges="EdgeW2 EdgeS1"/></vehicle>
	<vehicle id="90" depart="717"><route edges="EdgeN2 EdgeE1"/></vehicle>
	<vehicle id="91" depart="729"><route edges="EdgeW2 EdgeS1"/></vehicle>
	<vehicle id="92" depart="731"><route edges="EdgeE2 EdgeN1"/></vehicle>
	<vehicle id="93" depart="741"><route edges="EdgeE2 EdgeS1"/></vehicle>
	<vehicle id="94" depart="745"><route edges="EdgeN2 EdgeS1"/></vehicle>
	<vehicle id="95" depart="754"><route edges="EdgeS2 EdgeW1"/></vehicle>
	<vehicle id="96" depart="760"><route edges="EdgeW2 EdgeS1"/></vehicle>
	<vehicle id="97" depart="766"><route edges="EdgeN2 EdgeE1"/></vehicle>
	<vehicle id="98" depart="777"><route edges="EdgeW2 EdgeE1"/></vehicle>
	<vehicle id="99" depart="779"><route edges="EdgeS2 EdgeN1"/></vehicle>
	<vehicle id="100" depart="787"><route edges="EdgeE2 EdgeS1"/></vehicle>
	<vehicle id="101" depart="790"><route edges="EdgeN2 EdgeS1"/></vehicle>
	<vehicle id="102" depart="799"><route edges="EdgeS2 EdgeW1"/></vehicle>
	<vehicle id="103" depart="823"><route edges="EdgeE2 EdgeN1"/></vehicle>
	<vehicle id="104" depart="825"><route edges="EdgeN2 EdgeE1"/></vehicle>
	<vehicle id="105" depart="835"><route edges="EdgeW2 EdgeS1"/></vehicle>
	<vehicle id="106" depart="838"><route edges="EdgeS2 EdgeN1"/></vehicle>
	<vehicle id="107" depart="844"><route edges="EdgeE2 EdgeS1"/></vehicle>
	<vehicle id="108" depart="847"><route edges="EdgeN2 EdgeE1"/></vehicle>
	<vehicle id="109" depart="852"><route edges="EdgeS2 EdgeE1"/></vehicle>
	<vehicle id="110" depart="854"><route edges="EdgeN2 EdgeW1"/></vehicle>
	<vehicle id="111" depart="859"><route edges="EdgeN2 EdgeS1"/></vehicle>
	<vehicle id="112" depart="862"><route edges="EdgeW2 EdgeN1"/></vehicle>
	<vehicle id="113" depart="862"><route edges="EdgeN2 EdgeS1"/></vehicle>
	<vehicle id="114" depart="868"><route edges="EdgeN2 EdgeS1"/></vehicle>
	<vehicle id="115" depart="876"><route edges="EdgeS2 EdgeE1"/></vehicle>
	<vehicle id="116" depart="884"><route edges="EdgeW2 EdgeS1"/></vehicle>
	<vehicle id="117" depart="886"><route edges="EdgeE2 EdgeS1"/></vehicle>
	<vehicle id="118" depart="891"><route edges="EdgeN2 EdgeW1"/></vehicle>
	<vehicle id="119" depart="893"><route edges="EdgeW2 EdgeE1"/></vehicle>
	<vehicle id="120" depart="909"><route edges="EdgeE2 EdgeS1"/></vehicle>
	<vehicle id="121" depart="910"><route edges="EdgeW2 EdgeS1"/></vehicle>
	<vehicle id="122" depart="913"><route edges="EdgeN2 EdgeW1"/></vehicle>
	<vehicle id="123" depart="917"><route edges="EdgeE2 EdgeW1"/></vehicle>
	<vehicle id="124" depart="927"><route edges="EdgeN2 EdgeE1"/></vehicle>
	<vehicle id="125" depart="931"><route edges="EdgeE2 EdgeW1"/></vehicle>
	<vehicle id="126" depart="933"><route edges="EdgeN2 EdgeW1"/></vehicle>
	<vehicle id="127" depart="937"><route edges="EdgeS2 EdgeE1"/></vehicle>
	<vehicle id="128" depart="941"><route edges="EdgeW2 EdgeS1"/></vehicle>
	<vehicle id="129" depart="954"><route edges="EdgeS2 EdgeE1"/></vehicle>
	<vehicle id="130" depart="969"><route edges="EdgeN2 EdgeW1"/></vehicle>
	<vehicle id="131" depart="974"><route edges="EdgeS2 EdgeW1"/></vehicle>
	<vehicle id="132" depart="996"><route edges="EdgeE2 EdgeN1"/></vehicle>
	<vehicle id="133" depart="1002"><route edges="EdgeW2 EdgeN1"/></vehicle>
	<vehicle id="134" depart="1004"><route edges="EdgeS2 EdgeN1"/></vehicle>
	<vehicle id="135" depart="1012"><route edges="EdgeE2 EdgeN1"/></vehicle>
	<vehicle id="136" depart="1013"><route edges="EdgeE2 EdgeN1"/></vehicle>
	<vehicle id="137" depart="1014"><route edges="EdgeE2 EdgeW1"/></vehicle>
	<vehicle id="138" depart="1020"><route edges="EdgeN2 EdgeW1"/></vehicle>
	<vehicle id="139" depart="1021"><route edges="EdgeN2 EdgeW1"/></vehicle>
	<vehicle id="140" depart="1025"><route edges="EdgeE2 EdgeS1"/></vehicle>
	<vehicle id="141" depart="1028"><route edges="EdgeE2 EdgeS1"/></vehicle>
	<vehicle id="142" depart="1031"><route edges="EdgeE2 EdgeN1"/></vehicle>
	<vehicle id="143" depart="1034"><route edges="EdgeE2 EdgeN1"/></vehicle>
	<vehicle id="144" depart="1042"><route edges="EdgeN2 EdgeE1"/></vehicle>
	<vehicle id="145" depart="1042"><route edges="EdgeW2 EdgeE1"/></vehicle>
	<vehicle id="146" depart="1046"><route edges="EdgeS2 EdgeE1"/></vehicle>
	<vehicle id="147" depart="1047"><route edges="EdgeW2 EdgeE1"/></vehicle>
	<vehicle id="148" depart="1048"><route edges="EdgeW2 EdgeE1"/></vehicle>
	<vehicle id="149" depart="1049"><route edges="EdgeW2 EdgeE1"/></vehicle>
	<vehicle id="150" depart="1059"><route edges="EdgeW2 EdgeS1"/></vehicle>
	<vehicle id="151" depart="1070"><route edges="EdgeE2 EdgeS1"/></vehicle>
	<vehicle id="152" depart="1071"><route edges="EdgeN2 EdgeW1"/></vehicle>
	<vehicle id="153" depart="1079"><route edges="EdgeS2 EdgeW1"/></vehicle>
	<vehicle id="154" depart="1080"><route edges="EdgeN2 EdgeE1"/></vehicle>
	<vehicle id="155" depart="1090"><route edges="EdgeS2 EdgeW1"/></vehicle>
	<vehicle id="156" depart="1091"><route edges="EdgeN2 EdgeW1"/></vehicle>
	<vehicle id="157" depart="1093"><route edges="EdgeW2 EdgeN1"/></vehicle>
	<vehicle id="158" depart="1095"><route edges="EdgeN2 EdgeS1"/></vehicle>
	<vehicle id="159" depart="1104"><route edges="EdgeE2 EdgeW1"/></vehicle>
	<vehicle id="160" depart="1110"><route edges="EdgeN2 EdgeS1"/></vehicle>
	<vehicle id="161" depart="1140"><route edges="EdgeW2 EdgeS1"/></vehicle>
	<vehicle id="162" depart="1145"><route edges="EdgeW2 EdgeE1"/></vehicle>
	<vehicle id="163" depart="1151"><route edges="EdgeS2 EdgeW1"/></vehicle>
	<vehicle id="164" depart="1153"><route edges="EdgeW2 EdgeE1"/></vehicle>
	<vehicle id="165" depart="1154"><route edges="EdgeN2 EdgeE1"/></vehicle>
	<vehicle id="166" depart="1154"><route edges="EdgeN2 EdgeW1"/></vehicle>
	<vehicle id="167" depart="1161"><route edges="EdgeW2 EdgeN1"/></vehicle>
	<vehicle id="168" depart="1167"><route edges="EdgeS2 EdgeW1"/></vehicle>
	<vehicle id="169" depart="1173"><route edges="EdgeE2 EdgeS1"/></vehicle>
	<vehicle id="170" depart="1180"><route edges="EdgeW2 EdgeS1"/></vehicle>
	<vehicle id="171" depart="1181"><route edges="EdgeW2 EdgeE1"/></vehicle>
	<vehicle id="172" depart="1185"><route edges="EdgeW2 EdgeS1"/></vehicle>
	<vehicle id="173" depart="1189"><route edges="EdgeE2 EdgeW1"/></vehicle>
	<vehicle id="174" depart="1190"><route edges="EdgeE2 EdgeS1"/></vehicle>
	<vehicle id="175" depart="1193"><route edges="EdgeS2 EdgeE1"/></vehicle>
	<vehicle id="176" depart="1195"><route edges="EdgeE2 EdgeS1"/></vehicle>
	<vehicle id="177" depart="1198"><route edges="EdgeS2 EdgeE1"/></vehicle>
	<vehicle id="178" depart="1202"><route edges="EdgeN2 EdgeW1"/></vehicle>
	<vehicle id="179" depart="1203"><route edges="EdgeN2 EdgeE1"/></vehicle>
	<vehicle id="180" depart="1209"><route edges="EdgeW2 EdgeS1"/></vehicle>
	<vehicle id="181" depart="1213"><route edges="EdgeW2 EdgeE1"/></vehicle>
	<vehicle id="182" depart="1220"><route edges="EdgeS2 EdgeE1"/></vehicle>
	<vehicle id="183" depart="1220"><route edges="EdgeE2 EdgeN1"/></vehicle>
	<vehicle id="184" depart="1231"><route edges="EdgeW2 EdgeS1"/></vehicle>
	<vehicle id="185" depart="1231"><route edges="EdgeW2 EdgeE1"/></vehicle>
	<vehicle id="186" depart="1234"><route edges="EdgeW2 EdgeN1"/></vehicle>
	<vehicle id="187" depart="1245"><route edges="EdgeW2 EdgeS1"/></vehicle>
	<vehicle id="188" depart="1245"><route edges="EdgeW2 EdgeE1"/></vehicle>
	<vehicle id="189" depart="1246"><route edges="EdgeN2 EdgeE1"/></vehicle>
	<vehicle id="190" depart="1248"><route edges="EdgeS2 EdgeN1"/></vehicle>
	<vehicle id="191" depart="1250"><route edges="EdgeW2 EdgeN1"/></vehicle>
	<vehicle id="192" depart="1250"><route edges="EdgeE2 EdgeW1"/></vehicle>
	<vehicle id="193" depart="1258"><route edges="EdgeE2 EdgeW1"/></vehicle>
	<vehicle id="194" depart="1269"><route edges="EdgeE2 EdgeS1"/></vehicle>
	<vehicle id="195" depart="1272"><route edges="EdgeW2 EdgeN1"/></vehicle>
	<vehicle id="196" depart="1277"><route edges="EdgeW2 EdgeE1"/></vehicle>
	<vehicle id="197" depart="1278"><route edges="EdgeN2 EdgeW1"/></vehicle>
	<vehicle id="198" depart="1279"><route edges="EdgeE2 EdgeW1"/></vehicle>
	<vehicle id="199" depart="1279"><route edges="EdgeN2 EdgeE1"/></vehicle>
	<vehicle id="200" depart="1279"><route edges="EdgeE2 EdgeS1"/></vehicle>
	<vehicle id="201" depart="1290"><route edges="EdgeW2 EdgeE1"/></vehicle>
	<vehicle id="202" depart="1301"><route edges="EdgeW2 EdgeN1"/></vehicle>
	<vehicle id="203" depart="1301"><route edges="EdgeN2 EdgeW1"/></vehicle>
	<vehicle id="204" depart="1309"><route edges="EdgeE2 EdgeS1"/></vehicle>
	<vehicle id="205" depart="1313"><route edges="EdgeN2 EdgeW1"/></vehicle>
	<vehicle id="206" depart="1313"><route edges="EdgeS2 EdgeW1"/></vehicle>
	<vehicle id="207" depart="1314"><route edges="EdgeN2 EdgeS1"/></vehicle>
	<vehicle id="208" depart="1316"><route edges="EdgeS2 EdgeN1"/></vehicle>
	<vehicle id="209" depart="1316"><route edges="EdgeS2 EdgeN1"/></vehicle>
	<vehicle id="210" depart="1322"><route edges="EdgeE2 EdgeN1"/></vehicle>
	<vehicle id="211" depart="1323"><route edges="EdgeE2 EdgeW1"/></vehicle>
	<vehicle id="212" depart="1337"><route edges="EdgeN2 EdgeE1"/></vehicle>
	<vehicle id="213" depart="1338"><route edges="EdgeS2 EdgeE1"/></vehicle>
	<vehicle id="214" depart="1344"><route edges="EdgeN2 EdgeS1"/></vehicle>
	<vehicle id="215" depart="1351"><route edges="EdgeW2 EdgeS1"/></vehicle>
	<vehicle id="216" depart="1357"><route edges="EdgeE2 EdgeW1"/></vehicle>
	<vehicle id="217" depart="1358"><route edges="EdgeS2 EdgeN1"/></vehicle>
	<vehicle id="218" depart="1364"><route edges="EdgeW2 EdgeN1"/></vehicle>
	<vehicle id="219" depart="1369"><route edges="EdgeW2 EdgeE1"/></vehicle>
	<vehicle id="220" depart="1374"><route edges="EdgeN2 EdgeS1"/></vehicle>
	<vehicle id="221" depart="1379"><route edges="EdgeW2 EdgeE1"/></vehicle>
	<vehicle id="222" depart="1395"><route edges="EdgeS2 EdgeW1"/></vehicle>
	<vehicle id="223" depart="1398"><route edges="EdgeS2 EdgeN1"/></vehicle>
	<vehicle id="224" depart="1411"><route edges="EdgeS2 EdgeW1"/></vehicle>
	<vehicle id="225" depart="1413"><route edges="EdgeW2 EdgeS1"/></vehicle>
	<vehicle id="226" depart="1420"><route edges="EdgeE2 EdgeW1"/></vehicle>
	<vehicle id="227" depart="1420"><route edges="EdgeS2 EdgeN1"/></vehicle>
	<vehicle id="228" depart="1429"><route edges="EdgeE2 EdgeN1"/></vehicle>
	<vehicle id="229" depart="1431"><route edges="EdgeW2 EdgeS1"/></vehicle>
	<vehicle id="230" depart="1432"><route edges="EdgeN2 EdgeS1"/></vehicle>
	<vehicle id="231" depart="1437"><route edges="EdgeN2 EdgeE1"/></vehicle>
	<vehicle id="232" depart="1440"><route edges="EdgeW2 EdgeS1"/></vehicle>
	<vehicle id="233" depart="1442"><route edges="EdgeN2 EdgeW1"/></vehicle>
	<vehicle id="234" depart="1448"><route edges="EdgeN2 EdgeS1"/></vehicle>
	<vehicle id="235" depart="1448"><route edges="EdgeE2 EdgeS1"/></vehicle>
	<vehicle id="236" depart="1453"><route edges="EdgeW2 EdgeE1"/></vehicle>
	<vehicle id="237" depart="1461"><route edges="EdgeE2 EdgeS1"/></vehicle>
	<vehicle id="238" depart="1466"><route edges="EdgeE2 EdgeN1"/></vehicle>
	<vehicle id="239" depart="1468"><route edges="EdgeN2 EdgeE1"/></vehicle>
	<vehicle id="240" depart="1472"><route edges="EdgeW2 EdgeE1"/></vehicle>
	<vehicle id="241" depart="1483"><route edges="EdgeN2 EdgeS1"/></vehicle>
	<vehicle id="242" depart="1492"><route edges="EdgeS2 EdgeW1"/></vehicle>
	<vehicle id="243" depart="1496"><route edges="EdgeS2 EdgeN1"/></vehicle>
	<vehicle id="244" depart="1498"><route edges="EdgeE2 EdgeS1"/></vehicle>
	<vehicle id="245" depart="1499"><route edges="EdgeS2 EdgeW1"/></vehicle>
	<vehicle id="246" depart="1501"><route edges="EdgeS2 EdgeN1"/></vehicle>
	<vehicle id="247" depart="1505"><route edges="EdgeE2 EdgeS1"/></vehicle>
	<vehicle id="248" depart="1527"><route edges="EdgeN2 EdgeW1"/></vehicle>
	<vehicle id="249" depart="1529"><route edges="EdgeW2 EdgeE1"/></vehicle>
	<vehicle id="250" depart="1529"><route edges="EdgeS2 EdgeW1"/></vehicle>
	<vehicle id="251" depart="1540"><route edges="EdgeW2 EdgeN1"/></vehicle>
	<vehicle id="252" depart="1541"><route edges="EdgeS2 EdgeE1"/></vehicle>
	<vehicle id="253" depart="1547"><route edges="EdgeE2 EdgeS1"/></vehicle>
	<vehicle id="254" depart="1554"><route edges="EdgeS2 EdgeE1"/></vehicle>
	<vehicle id="255" depart="1559"><route edges="EdgeN2 EdgeS1"/></vehicle>
	<vehicle id="256" depart="1566"><route edges="EdgeN2 EdgeS1"/></vehicle>
	<vehicle id="257" depart="1567"><route edges="EdgeN2 EdgeW1"/></vehicle>
	<vehicle id="258" depart="1574"><route edges="EdgeE2 EdgeW1"/></vehicle>
	<vehicle id="259" depart="1577"><route edges="EdgeE2 EdgeS1"/></vehicle>
	<vehicle id="260" depart="1577"><route edges="EdgeS2 EdgeW1"/></vehicle>
	<vehicle id="261" depart="1590"><route edges="EdgeW2 EdgeE1"/></vehicle>
	<vehicle id="262" depart="1601"><route edges="EdgeW2 EdgeS1"/></vehicle>
	<vehicle id="263" depart="1603"><route edges="EdgeE2 EdgeN1"/></vehicle>
	<vehicle id="264" depart="1607"><route edges="EdgeS2 EdgeN1"/></vehicle>
	<vehicle id="265" depart="1608"><route edges="EdgeS2 EdgeE1"/></vehicle>
	<vehicle id="266" depart="1615"><route edges="EdgeE2 EdgeS1"/></vehicle>
	<vehicle id="267" depart="1616"><route edges="EdgeW2 EdgeN1"/></vehicle>
	<vehicle id="268" depart="1632"><route edges="EdgeS2 EdgeE1"/></vehicle>
	<vehicle id="269" depart="1632"><route edges="EdgeE2 EdgeW1"/></vehicle>
	<vehicle id="270" depart="1634"><route edges="EdgeE2 EdgeS1"/></vehicle>
	<vehicle id="271" depart="1638"><route edges="EdgeW2 EdgeE1"/></vehicle>
	<vehicle id="272" depart="1642"><route edges="EdgeS2 EdgeE1"/></vehicle>
	<vehicle id="273" depart="1653"><route edges="EdgeW2 EdgeE1"/></vehicle>
	<vehicle id="274" depart="1665"><route edges="EdgeW2 EdgeS1"/></vehicle>
	<vehicle id="275" depart="1665"><route edges="EdgeS2 EdgeE1"/></vehicle>
	<vehicle id="276" depart="1675"><route edges="EdgeS2 EdgeE1"/></vehicle>
	<vehicle id="277" depart="1680"><route edges="EdgeE2 EdgeS1"/></vehicle>
	<vehicle id="278" depart="1681"><route edges="EdgeN2 EdgeE1"/></vehicle>
	<vehicle id="279" depart="1682"><route edges="EdgeS2 EdgeN1"/></vehicle>
	<vehicle id="280" depart="1701"><route edges="EdgeW2 EdgeN1"/></vehicle>
	<vehicle id="281" depart="1702"><route edges="EdgeS2 EdgeE1"/></vehicle>
	<vehicle id="282" depart="1702"><route edges="EdgeS2 EdgeE1"/></vehicle>
	<vehicle id="283" depart="1707"><route edges="EdgeS2 EdgeE1"/></vehicle>
	<vehicle id="284" depart="1710"><route edges="EdgeW2 EdgeS1"/></vehicle>
	<vehicle id="285" depart="1712"><route edges="EdgeS2 EdgeN1"/></vehicle>
	<vehicle id="286" depart="1713"><route edges="EdgeN2 EdgeW1"/></vehicle>
	<vehicle id="287" depart="1716"><route edges="EdgeS2 EdgeN1"/></vehicle>
	<vehicle id="288" depart="1719"><route edges="EdgeN2 EdgeS1"/></vehicle>
	<vehicle id="289" depart="1721"><route edges="EdgeW2 EdgeN1"/></vehicle>
	<vehicle id="290" depart="1722"><route edges="EdgeS2 EdgeE1"/></vehicle>
	<vehicle id="291" depart="1725"><route edges="EdgeE2 EdgeW1"/></vehicle>
	<vehicle id="292" depart="1725"><route edges="EdgeS2 EdgeW1"/></vehicle>
	<vehicle id="293" depart="1728"><route edges="EdgeW2 EdgeS1"/></vehicle>
	<vehicle id="294" depart="1731"><route edges="EdgeW2 EdgeS1"/></vehicle>
	<vehicle id="295" depart="1744"><route edges="EdgeW2 EdgeN1"/></vehicle>
	<vehicle id="296" depart="1746"><route edges="EdgeN2 EdgeS1"/></vehicle>
	<vehicle id="297" depart="1748"><route edges="EdgeW2 EdgeN1"/></vehicle>
	<vehicle id="298" depart="1764"><route edges="EdgeW2 EdgeE1"/></vehicle>
	<vehicle id="299" depart="1770"><route edges="EdgeW2 EdgeE1"/></vehicle>
	<vehicle id="300" depart="1788"><route edges="EdgeE2 EdgeW1"/></vehicle>
	<vehicle id="301" depart="1792"><route edges="EdgeN2 EdgeW1"/></vehicle>
	<vehicle id="302" depart="1797"><route edges="EdgeE2 EdgeW1"/></vehicle>
	<vehicle id="303" depart="1800"><route edges="EdgeW2 EdgeN1"/></vehicle>
	<vehicle id="304" depart="1801"><route edges="EdgeE2 EdgeW1"/></vehicle>
	<vehicle id="305" depart="1804"><route edges="EdgeS2 EdgeW1"/></vehicle>
	<vehicle id="306" depart="1805"><route edges="EdgeE2 EdgeW1"/></vehicle>
	<vehicle id="307" depart="1815"><route edges="EdgeW2 EdgeS1"/></vehicle>
	<vehicle id="308" depart="1827"><route edges="EdgeN2 EdgeS1"/></vehicle>
	<vehicle id="309" depart="1833"><route edges="EdgeS2 EdgeW1"/></vehicle>
	<vehicle id="310" depart="1835"><route edges="EdgeS2 EdgeE1"/></vehicle>
	<vehicle id="311" depart="1843"><route edges="EdgeN2 EdgeW1"/></vehicle>
	<vehicle id="312" depart="1849"><route edges="EdgeE2 EdgeW1"/></vehicle>
	<vehicle id="313" depart="1856"><route edges="EdgeW2 EdgeE1"/></vehicle>
	<vehicle id="314" depart="1862"><route edges="EdgeE2 EdgeW1"/></vehicle>
	<vehicle id="315" depart="1869"><route edges="EdgeW2 EdgeS1"/></vehicle>
	<vehicle id="316" depart="1870"><route edges="EdgeN2 EdgeS1"/></vehicle>
	<vehicle id="317" depart="1886"><route edges="EdgeS2 EdgeE1"/></vehicle>
	<vehicle id="318" depart="1887"><route edges="EdgeE2 EdgeS1"/></vehicle>
	<vehicle id="319" depart="1891"><route edges="EdgeW2 EdgeS1"/></vehicle>
	<vehicle id="320" depart="1896"><route edges="EdgeS2 EdgeW1"/></vehicle>
	<vehicle id="321" depart="1897"><route edges="EdgeN2 EdgeW1"/></vehicle>
	<vehicle id="322" depart="1911"><route edges="EdgeN2 EdgeE1"/></vehicle>
	<vehicle id="323" depart="1917"><route edges="EdgeE2 EdgeN1"/></vehicle>
	<vehicle id="324" depart="1922"><route edges="EdgeN2 EdgeE1"/></vehicle>
	<vehicle id="325" depart="1924"><route edges="EdgeS2 EdgeE1"/></vehicle>
	<vehicle id="326" depart="1928"><route edges="EdgeE2 EdgeN1"/></vehicle>
	<vehicle id="327" depart="1931"><route edges="EdgeW2 EdgeE1"/></vehicle>
	<vehicle id="328" depart="1932"><route edges="EdgeE2 EdgeN1"/></vehicle>
	<vehicle id="329" depart="1937"><route edges="EdgeS2 EdgeW1"/></vehicle>
	<vehicle id="330" depart="1937"><route edges="EdgeN2 EdgeE1"/></vehicle>
	<vehicle id="331" depart="1942"><route edges="EdgeW2 EdgeS1"/></vehicle>
	<vehicle id="332" depart="1945"><route edges="EdgeN2 EdgeS1"/></vehicle>
	<vehicle id="333" depart="1946"><route edges="EdgeS2 EdgeE1"/></vehicle>
	<vehicle id="334" depart="1949"><route edges="EdgeS2 EdgeE1"/></vehicle>
	<vehicle id="335" depart="1950"><route edges="EdgeE2 EdgeW1"/></vehicle>
	<vehicle id="336" depart="1950"><route edges="EdgeW2 EdgeS1"/></vehicle>
	<vehicle id="337" depart="1955"><route edges="EdgeE2 EdgeW1"/></vehicle>
	<vehicle id="338" depart="1956"><route edges="EdgeE2 EdgeS1"/></vehicle>
	<vehicle id="339" depart="1959"><route edges="EdgeS2 EdgeW1"/></vehicle>
	<vehicle id="340" depart="1967"><route edges="EdgeN2 EdgeS1"/></vehicle>
	<vehicle id="341" depart="1971"><route edges="EdgeW2 EdgeN1"/></vehicle>
	<vehicle id="342" depart="1977"><route edges="EdgeW2 EdgeE1"/></vehicle>
	<vehicle id="343" depart="1984"><route edges="EdgeW2 EdgeN1"/></vehicle>
	<vehicle id="344" depart="1989"><route edges="EdgeS2 EdgeN1"/></vehicle>
	<vehicle id="345" depart="1990"><route edges="EdgeS2 EdgeN1"/></vehicle>
	<vehicle id="346" depart="1992"><route edges="EdgeE2 EdgeN1"/></vehicle>
	<vehicle id="347" depart="1995"><route edges="EdgeS2 EdgeE1"/></vehicle>
	<vehicle id="348" depart="1998"><route edges="EdgeE2 EdgeW1"/></vehicle>
	<vehicle id="349" depart="1998"><route edges="EdgeE2 EdgeS1"/></vehicle>
	<vehicle id="350" depart="2000"><route edges="EdgeS2 EdgeN1"/></vehicle>
	<vehicle id="351" depart="2015"><route edges="EdgeS2 EdgeE1"/></vehicle>
	<vehicle id="352" depart="2018"><route edges="EdgeN2 EdgeE1"/></vehicle>
	<vehicle id="353" depart="2018"><route edges="EdgeN2 EdgeW1"/></vehicle>
	<vehicle id="354" depart="2022"><route edges="EdgeE2 EdgeW1"/></vehicle>
	<vehicle id="355" depart="2023"><route edges="EdgeW2 EdgeS1"/></vehicle>
	<vehicle id="356" depart="2024"><route edges="EdgeE2 EdgeN1"/></vehicle>
	<vehicle id="357" depart="2024"><route edges="EdgeW2 EdgeS1"/></vehicle>
	<vehicle id="358" depart="2027"><route edges="EdgeS2 EdgeW1"/></vehicle>
	<vehicle id="359" depart="2039"><route edges="EdgeW2 EdgeE1"/></vehicle>
	<vehicle id="360" depart="2044"><route edges="EdgeW2 EdgeN1"/></vehicle>
	<vehicle id="361" depart="2045"><route edges="EdgeW2 EdgeN1"/></vehicle>
	<vehicle id="362" depart="2046"><route edges="EdgeS2 EdgeN1"/></vehicle>
	<vehicle id="363" depart="2049"><route edges="EdgeW2 EdgeE1"/></vehicle>
	<vehicle id="364" depart="2056"><route edges="EdgeS2 EdgeN1"/></vehicle>
	<vehicle id="365" depart="2062"><route edges="EdgeE2 EdgeS1"/></vehicle>
	<vehicle id="366" depart="2073"><route edges="EdgeN2 EdgeS1"/></vehicle>
	<vehicle id="367" depart="2079"><route edges="EdgeE2 EdgeS1"/></vehicle>
	<vehicle id="368" depart="2079"><route edges="EdgeS2 EdgeN1"/></vehicle>
	<vehicle id="369" depart="2083"><route edges="EdgeN2 EdgeS1"/></vehicle>
	<vehicle id="370" depart="2092"><route edges="EdgeS2 EdgeE1"/></vehicle>
	<vehicle id="371" depart="2095"><route edges="EdgeN2 EdgeE1"/></vehicle>
	<vehicle id="372" depart="2098"><route edges="EdgeW2 EdgeE1"/></vehicle>
	<vehicle id="373" depart="2102"><route edges="EdgeW2 EdgeN1"/></vehicle>
	<vehicle id="374" depart="2102"><route edges="EdgeE2 EdgeW1"/></vehicle>
	<vehicle id="375" depart="2120"><route edges="EdgeW2 EdgeE1"/></vehicle>
	<vehicle id="376" depart="2120"><route edges="EdgeN2 EdgeW1"/></vehicle>
	<vehicle id="377" depart="2122"><route edges="EdgeS2 EdgeN1"/></vehicle>
	<vehicle id="378" depart="2123"><route edges="EdgeS2 EdgeE1"/></vehicle>
	<vehicle id="379" depart="2132"><route edges="EdgeW2 EdgeS1"/></vehicle>
	<vehicle id="380" depart="2136"><route edges="EdgeS2 EdgeW1"/></vehicle>
	<vehicle id="381" depart="2142"><route edges="EdgeW2 EdgeS1"/></vehicle>
	<vehicle id="382" depart="2145"><route edges="EdgeE2 EdgeS1"/></vehicle>
	<vehicle id="383" depart="2146"><route edges="EdgeN2 EdgeS1"/></vehicle>
	<vehicle id="384" depart="2151"><route edges="EdgeE2 EdgeN1"/></vehicle>
	<vehicle id="385" depart="2166"><route edges="EdgeE2 EdgeS1"/></vehicle>
	<vehicle id="386" depart="2173"><route edges="EdgeS2 EdgeE1"/></vehicle>
	<vehicle id="387" depart="2175"><route edges="EdgeE2 EdgeS1"/></vehicle>
	<vehicle id="388" depart="2190"><route edges="EdgeN2 EdgeW1"/></vehicle>
	<vehicle id="389" depart="2192"><route edges="EdgeN2 EdgeE1"/></vehicle>
	<vehicle id="390" depart="2193"><route edges="EdgeN2 EdgeE1"/></vehicle>
	<vehicle id="391" depart="2195"><route edges="EdgeE2 EdgeN1"/></vehicle>
	<vehicle id="392" depart="2196"><route edges="EdgeW2 EdgeN1"/></vehicle>
	<vehicle id="393" depart="2201"><route edges="EdgeW2 EdgeE1"/></vehicle>
	<vehicle id="394" depart="2203"><route edges="EdgeW2 EdgeN1"/></vehicle>
	<vehicle id="395" depart="2205"><route edges="EdgeE2 EdgeS1"/></vehicle>
	<vehicle id="396" depart="2206"><route edges="EdgeN2 EdgeW1"/></vehicle>
	<vehicle id="397" depart="2208"><route edges="EdgeE2 EdgeN1"/></vehicle>
	<vehicle id="398" depart="2217"><route edges="EdgeN2 EdgeW1"/></vehicle>
	<vehicle id="399" depart="2225"><route edges="EdgeE2 EdgeW1"/></vehicle>
	<vehicle id="400" depart="2225"><route edges="EdgeN2 EdgeW1"/></vehicle>
	<vehicle id="401" depart="2227"><route edges="EdgeS2 EdgeE1"/></vehicle>
	<vehicle id="402" depart="2228"><route edges="EdgeE2 EdgeN1"/></vehicle>
	<vehicle id="403" depart="2232"><route edges="EdgeW2 EdgeS1"/></vehicle>
	<vehicle id="404" depart="2233"><route edges="EdgeS2 EdgeN1"/></vehicle>
	<vehicle id="405" depart="2235"><route edges="EdgeN2 EdgeS1"/></vehicle>