<?xml version="1.0" encoding="UTF-8"?>
<routes xmlns:xsi="http://www.w3.org/2001/XMLSchema-instance" xsi:noNamespaceSchemaLocation="http://sumo.dlr.de/xsd/routes_file.xsd">
	<vehicle id="0" depart="2"><route edges="EdgeS2 EdgeN1"/></vehicle>
	<vehicle id="1" depart="10"><route edges="EdgeW2 EdgeN1"/></vehicle>
	<vehicle id="2" depart="24"><route edges="EdgeW2 EdgeE1"/></vehicle>
	<vehicle id="3" depart="25"><route edges="EdgeN2 EdgeE1"/></vehicle>
	<vehicle id="4" depart="33"><route edges="EdgeW2 EdgeN1"/></vehicle>
	<vehicle id="5" depart="42"><route edges="EdgeS2 EdgeW1"/></vehicle>
	<vehicle id="6" depart="45"><route edges="EdgeS2 EdgeW1"/></vehicle>
	<vehicle id="7" depart="71"><route edges="EdgeW2 EdgeE1"/></vehicle>
	<vehicle id="8" depart="75"><route edges="EdgeW2 EdgeS1"/></vehicle>
	<vehicle id="9" depart="78"><route edges="EdgeE2 EdgeS1"/></vehicle>
	<vehicle id="10" depart="88"><route edges="EdgeW2 EdgeS1"/></vehicle>
	<vehicle id="11" depart="90"><route edges="EdgeE2 EdgeW1"/></vehicle>
	<vehicle id="12" depart="113"><route edges="EdgeS2 EdgeW1"/></vehicle>
	<vehicle id="13" depart="124"><route edges="EdgeE2 EdgeW1"/></vehicle>
	<vehicle id="14" depart="132"><route edges="EdgeS2 EdgeN1"/></vehicle>
	<vehicle id="15" depart="135"><route edges="EdgeW2 EdgeE1"/></vehicle>
	<vehicle id="16" depart="144"><route edges="EdgeN2 EdgeE1"/></vehicle>
	<vehicle id="17" depart="152"><route edges="EdgeS2 EdgeE1"/></vehicle>
	<vehicle id="18" depart="155"><route edges="EdgeW2 EdgeN1"/></vehicle>
	<vehicle id="19" depart="156"><route edges="EdgeN2 EdgeW1"/></vehicle>
	<vehicle id="20" depart="161"><route edges="EdgeE2 EdgeS1"/></vehicle>
	<vehicle id="21" depart="163"><route edges="EdgeN2 EdgeE1"/></vehicle>
	<vehicle id="22" depart="163"><route edges="EdgeW2 EdgeN1"/></vehicle>
	<vehicle id="23" depart="172"><route edges="EdgeW2 EdgeE1"/></vehicle>
	<vehicle id="24" depart="182"><route edges="EdgeW2 EdgeS1"/></vehicle>
	<vehicle id="25" depart="192"><route edges="EdgeS2 EdgeE1"/></vehicle>
	<vehicle id="26" depart="194"><route edges="EdgeE2 EdgeN1"/></vehicle>
	<vehicle id="27" depart="196"><route edges="EdgeE2 EdgeS1"/></vehicle>
	<vehicle id="28" depart="199"><route edges="EdgeN2 EdgeE1"/></vehicle>
	<vehicle id="29" depart="215"><route edges="EdgeS2 EdgeW1"/></vehicle>
	<vehicle id="30" depart="221"><route edges="EdgeW2 EdgeE1"/></vehicle>
	<vehicle id="31" depart="224"><route edges="EdgeS2 EdgeE1"/></vehicle>
	<vehicle id="32" depart="225"><route edges="EdgeS2 EdgeN1"/></vehicle>
	<vehicle id="33" depart="239"><route edges="EdgeE2 EdgeS1"/></vehicle>
	<vehicle id="34" depart="243"><route edges="EdgeE2 EdgeS1"/></vehicle>
	<vehicle id="35" depart="245"><route edges="EdgeS2 EdgeW1"/></vehicle>
	<vehicle id="36" depart="248"><route edges="EdgeN2 EdgeS1"/></vehicle>
	<vehicle id="37" depart="253"><route edges="EdgeN2 EdgeS1"/></vehicle>
	<vehicle id="38" depart="260"><route edges="EdgeN2 EdgeS1"/></vehicle>
	<vehicle id="39" depart="266"><route edges="EdgeS2 EdgeE1"/></vehicle>
	<vehicle id="40" depart="276"><route edges="EdgeW2 EdgeE1"/></vehicle>
	<vehicle id="41" depart="285"><route edges="EdgeW2 EdgeE1"/></vehicle>
	<vehicle id="42" depart="287"><route edges="EdgeN2 EdgeS1"/></vehicle>
	<vehicle id="43" depart="293"><route edges="EdgeN2 EdgeS1"/></vehicle>
	<vehicle id="44" depart="298"><route edges="EdgeW2 EdgeS1"/></vehicle>
	<vehicle id="45" depart="306"><route edges="EdgeW2 EdgeE1"/></vehicle>
	<vehicle id="46" depart="312"><route edges="EdgeN2 EdgeW1"/></vehicle>
	<vehicle id="47" depart="325"><route edges="EdgeE2 EdgeW1"/></vehicle>
	<vehicle id="48" depart="325"><route edges="EdgeS2 EdgeN1"/></vehicle>
	<vehicle id="49" depart="328"><route edges="EdgeN2 EdgeS1"/></vehicle>
	<vehicle id="50" depart="337"><route edges="EdgeE2 EdgeW1"/></vehicle>
	<vehicle id="51" depart="341"><route edges="EdgeN2 EdgeS1"/></vehicle>
	<vehicle id="52" depart="344"><route edges="EdgeE2 EdgeW1"/></vehicle>
	<vehicle id="53" depart="350"><route edges="EdgeN2 EdgeE1"/></vehicle>
	<vehicle id="54" depart="361"><route edges="EdgeW2 EdgeE1"/></vehicle>
	<vehicle id="55" depart="361"><route edges="EdgeS2 EdgeN1"/></vehicle>
	<vehicle id="56" depart="372"><route edges="EdgeW2 EdgeN1"/></vehicle>
	<vehicle id="57" depart="379"><route edges="EdgeN2 EdgeE1"/></vehicle>
	<vehicle id="58" depart="381"><route edges="EdgeW2 EdgeS1"/></vehicle>
	<vehicle id="59" depart="392"><route edges="EdgeW2 EdgeS1"/></vehicle>
	<vehicle id="60" depart="397"><route edges="EdgeN2 EdgeS1"/></vehicle>
	<vehicle id="61" depart="401"><route edges="EdgeW2 EdgeS1"/></vehicle>
	<vehicle id="62" depart="409"><route edges="EdgeE2 EdgeN1"/></vehicle>
	<vehicle id="63" depart="413"><route edges="EdgeS2 EdgeE1"/></vehicle>
	<vehicle id="64" depart="415"><route edges="EdgeN2 EdgeW1"/></vehicle>
	<vehicle id="65" depart="421"><route edges="EdgeN2 EdgeW1"/></vehicle>
	<vehicle id="66" depart="422"><route edges="EdgeN2 EdgeS1"/></vehicle>
	<vehicle id="67" depart="427"><route edges="EdgeS2 EdgeN1"/></vehicle>
	<vehicle id="68" depart="428"><route edges="EdgeW2 EdgeS1"/></vehicle>
	<vehicle id="69" depart="432"><route edges="EdgeN2 EdgeW1"/></vehicle>
	<vehicle id="70" depart="450"><route edges="EdgeN2 EdgeS1"/></vehicle>
	<vehicle id="71" depart="455"><route edges="EdgeE2 EdgeS1"/></vehicle>
	<vehicle id="72" depart="456"><route edges="EdgeN2 EdgeE1"/></vehicle>
	<vehicle id="73" depart="463"><route edges="EdgeW2 EdgeE1"/></vehicle>
	<vehicle id="74" depart="467"><route edges="EdgeS2 EdgeE1"/></vehicle>
	<vehicle id="75" depart="468"><route edges="EdgeW2 EdgeE1"/></vehicle>
	<vehicle id="76" depart="469"><route edges="EdgeN2 EdgeS1"/></vehicle>
	<vehicle id="77" depart="480"><route edges="EdgeE2 EdgeW1"/></vehicle>
	<vehicle id="78" depart="485"><route edges="EdgeS2 EdgeW1"/></vehicle>
	<vehicle id="79" depart="506"><route edges="EdgeN2 EdgeS1"/></vehicle>
	<vehicle id="80" depart="507"><route edges="EdgeE2 EdgeN1"/></vehicle>
	<vehicle id="81" depart="508"><route edges="EdgeE2 EdgeS1"/></vehicle>
	<vehicle id="82" depart="514"><route edges="EdgeE2 EdgeN1"/></vehicle>
	<vehicle id="83" depart="515"><route edges="EdgeN2 EdgeS1"/></vehicle>
	<vehicle id="84" depart="515"><route edges="EdgeE2 EdgeN1"/></vehicle>
	<vehicle id="85" depart="518"><route edges="EdgeS2 EdgeN1"/></vehicle>
	<vehicle id="86" depart="520"><route edges="EdgeE2 EdgeW1"/></vehicle>
	<vehicle id="87" depart="530"><route edges="EdgeS2 EdgeN1"/></vehicle>
	<vehicle id="88" depart="532"><route edges="EdgeN2 EdgeW1"/></vehicle>
	<vehicle id="89" depart="535"><route edges="EdgeN2 EdgeS1"/></vehicle>
	<vehicle id="90" depart="545"><route edges="EdgeN2 EdgeW1"/></vehicle>
	<vehicle id="91" depart="554"><route edges="EdgeS2 EdgeW1"/></vehicle>
	<vehicle id="92" depart="575"><route edges="EdgeN2 EdgeW1"/></vehicle>
	<vehicle id="93" depart="583"><route edges="EdgeS2 EdgeW1"/></vehicle>
	<vehicle id="94" depart="585"><route edges="EdgeW2 EdgeE1"/></vehicle>
	<vehicle id="95" depart="604"><route edges="EdgeW2 EdgeS1"/></vehicle>
	<vehicle id="96" depart="605"><route edges="EdgeE2 EdgeS1"/></vehicle>
	<vehicle id="97" depart="607"><route edges="EdgeW2 EdgeN1"/></vehicle>
	<vehicle id="98" depart="611"><route edges="EdgeW2 EdgeE1"/></vehicle>
	<vehicle id="99" depart="633"><route edges="EdgeN2 EdgeE1"/></vehicle>
	<vehicle id="100" depart="634"><route edges="EdgeS2 EdgeW1"/></vehicle>
	<vehicle id="101" depart="641"><route edges="EdgeN2 EdgeE1"/></vehicle>
	<vehicle id="102" depart="645"><route edges="EdgeS2 EdgeW1"/></vehicle>
	<vehicle id="103" depart="651"><route edges="EdgeS2 EdgeW1"/></vehicle>
	<vehicle id="104" depart="661"><route edges="EdgeN2 EdgeS1"/></vehicle>
	<vehicle id="105" depart="670"><route edges="EdgeS2 EdgeN1"/></vehicle>
	<vehicle id="106" depart="676"><route edges="EdgeW2 EdgeS1"/></vehicle>
	<vehicle id="107" depart="677"><route edges="EdgeN2 EdgeS1"/></vehicle>
	<vehicle id="108" depart="686"><route edges="EdgeS2 EdgeW1"/></vehicle>
	<vehicle id="109" depart="687"><route edges="EdgeN2 EdgeE1"/></vehicle>
	<vehicle id="110" depart="689"><route edges="EdgeW2 EdgeN1"/></vehicle>
	<vehicle id="111" depart="695"><route edges="EdgeW2 EdgeN1"/></vehicle>
	<vehicle id="112" depart="704"><route edges="EdgeW2 EdgeN1"/></vehicle>
	<vehicle id="113" depart="716"><route edges="EdgeW2 EdgeN1"/></vehicle>
	<vehicle id="114" depart="726"><route edges="EdgeE2 EdgeS1"/></vehicle>
	<vehicle id="115" depart="734"><route edges="EdgeE2 EdgeN1"/></vehicle>
	<vehicle id="116" depart="735"><route edges="EdgeW2 EdgeS1"/></vehicle>
	<vehicle id="117" depart="750"><route edges="EdgeN2 EdgeE1"/></vehicle>
	<vehicle id="118" depart="755"><route edges="EdgeS2 EdgeE1"/></vehicle>
	<vehicle id="119" depart="765"><route edges="EdgeW2 EdgeS1"/></vehicle>
	<vehicle id="120" depart="771"><route edges="EdgeN2 EdgeS1"/></vehicle>
	<vehicle id="121" depart="772"><route edges="EdgeN2 EdgeE1"/></vehicle>
	<vehicle id="122" depart="772"><route edges="EdgeE2 EdgeW1"/></vehicle>
	<vehicle id="123" depart="784"><route edges="EdgeW2 EdgeS1"/></vehicle>
	<vehicle id="124" depart="789"><route edges="EdgeN2 EdgeW1"/></vehicle>
	<vehicle id="125" depart="791"><route edges="EdgeS2 EdgeW1"/></vehicle>
	<vehicle id="126" depart="797"><route edges="EdgeS2 EdgeW1"/></vehicle>
	<vehicle id="127" depart="799"><route edges="EdgeE2 EdgeS1"/></vehicle>
	<vehicle id="128" depart="807"><route edges="EdgeE2 EdgeS1"/></vehicle>
	<vehicle id="129" depart="820"><route edges="EdgeE2 EdgeW1"/></vehicle>
	<vehicle id="130" depart="827"><route edges="EdgeN2 EdgeE1"/></vehicle>
	<vehicle id="131" depart="830"><route edges="EdgeE2 EdgeS1"/></vehicle>
	<vehicle id="132" depart="833"><route edges="EdgeW2 EdgeE1"/></vehicle>
	<vehicle id="133" depart="838"><route edges="EdgeE2 EdgeW1"/></vehicle>
	<vehicle id="134" depart="859"><route edges="EdgeS2 EdgeE1"/></vehicle>
	<vehicle id="135" depart="860"><route edges="EdgeW2 EdgeE1"/></vehicle>
	<vehicle id="136" depart="873"><route edges="EdgeE2 EdgeW1"/></vehicle>
	<vehicle id="137" depart="874"><route edges="EdgeW2 EdgeE1"/></vehicle>
	<vehicle id="138" depart="891"><route edges="EdgeS2 EdgeN1"/></vehicle>
	<vehicle id="139" depart="893"><route edges="EdgeE2 EdgeN1"/></vehicle>
	<vehicle id="140" depart="895"><route edges="EdgeE2 EdgeN1"/></vehicle>
	<vehicle id="141" depart="899"><route edges="EdgeS2 EdgeE1"/></vehicle>
	<vehicle id="142" depart="906"><route edges="EdgeW2 EdgeN1"/></vehicle>
	<vehicle id="143" depart="920"><route edges="EdgeE2 EdgeS1"/></vehicle>
	<vehicle id="144" depart="922"><route edges="EdgeE2 EdgeN1"/></vehicle>
	<vehicle id="145" depart="937"><route edges="EdgeW2 EdgeE1"/></vehicle>
	<vehicle id="146" depart="938"><route edges="EdgeW2 EdgeE1"/></vehicle>
	<vehicle id="147" depart="938"><route edges="EdgeS2 EdgeN1"/></vehicle>
	<vehicle id="148" depart="944"><route edges="EdgeN2 EdgeW1"/></vehicle>
	<vehicle id="149" depart="948"><route edges="EdgeE2 EdgeN1"/></vehicle>
	<vehicle id="150" depart="956"><route edges="EdgeE2 EdgeW1"/></vehicle>
	<vehicle id="151" depart="957"><route edges="EdgeE2 EdgeW1"/></vehicle>
	<vehicle id="152" depart="970"><route edges="EdgeW2 EdgeE1"/></vehicle>
	<vehicle id="153" depart="976"><route edges="EdgeN2 EdgeW1"/></vehicle>
	<vehicle id="154" depart="978"><route edges="EdgeN2 EdgeS1"/></vehicle>
	<vehicle id="155" depart="979"><route edges="EdgeE2 EdgeW1"/></vehicle>
	<vehicle id="156" depart="986"><route edges="EdgeS2 EdgeN1"/></vehicle>
	<vehicle id="157" depart="987"><route edges="EdgeS2 EdgeN1"/></vehicle>
	<vehicle id="158" depart="989"><route edges="EdgeE2 EdgeW1"/></vehicle>
	<vehicle id="159" depart="991"><route edges="EdgeN2 EdgeW1"/></vehicle>
	<vehicle id="160" depart="1004"><route edges="EdgeN2 EdgeE1"/></vehicle>
	<vehicle id="161" depart="1011"><route edges="EdgeE2 EdgeW1"/></vehicle>
	<vehicle id="162" depart="1017"><route edges="EdgeS2 EdgeN1"/></vehicle>
	<vehicle id="163" depart="1018"><route edges="EdgeS2 EdgeN1"/></vehicle>
	<vehicle id="164" depart="1021"><route edges="EdgeE2 EdgeN1"/></vehicle>
	<vehicle id="165" depart="1029"><route edges="EdgeN2 EdgeE1"/></vehicle>
	<vehicle id="166" depart="1031"><route edges="EdgeE2 EdgeS1"/></vehicle>
	<vehicle id="167" depart="1038"><route edges="EdgeS2 EdgeE1"/></vehicle>
	<vehicle id="168" depart="1039"><route edges="EdgeS2 EdgeE1"/></vehicle>
	<vehicle id="169" depart="1046"><route edges="EdgeN2 EdgeS1"/></vehicle>
	<vehicle id="170" depart="1052"><route edges="EdgeE2 EdgeW1"/></vehicle>
	<vehicle id="171" depart="1055"><route edges="EdgeS2 EdgeN1"/></vehicle>
	<vehicle id="172" depart="1056"><route edges="EdgeN2 EdgeS1"/></vehicle>
	<vehicle id="173" depart="1058"><route edges="EdgeS2 EdgeN1"/></vehicle>
	<vehicle id="174" depart="1058"><route edges="EdgeE2 EdgeW1"/></vehicle>
	<vehicle id="175" depart="1069"><route edges="EdgeW2 EdgeS1"/></vehicle>
	<vehicle id="176" depart="1076"><route edges="EdgeW2 EdgeN1"/></vehicle>
	<vehicle id="177" depart="1089"><route edges="EdgeE2 EdgeW1"/></vehicle>
	<vehicle id="178" depart="1098"><route edges="EdgeE2 EdgeS1"/></vehicle>
	<vehicle id="179" depart="1111"><route edges="EdgeN2 EdgeS1"/></vehicle>
	<vehicle id="180" depart="1112"><route edges="EdgeN2 EdgeS1"/></vehicle>
	<vehicle id="181" depart="1123"><route edges="EdgeW2 EdgeE1"/></vehicle>
	<vehicle id="182" depart="1134"><route edges="EdgeE2 EdgeS1"/></vehicle>
	<vehicle id="183" depart="1152"><route edges="EdgeW2 EdgeN1"/></vehicle>
	<vehicle id="184" depart="1162"><route edges="EdgeW2 EdgeE1"/></vehicle>
	<vehicle id="185" depart="1172"><route edges="EdgeS2 EdgeW1"/></vehicle>
	<vehicle id="186" depart="1174"><route edges="EdgeE2 EdgeS1"/></vehicle>
	<vehicle id="187" depart="1181"><route edges="EdgeE2 EdgeW1"/></vehicle>
	<vehicle id="188" depart="1185"><route edges="EdgeE2 EdgeW1"/></vehicle>
	<vehicle id="189" depart="1188"><route edges="EdgeW2 EdgeN1"/></vehicle>
	<vehicle id="190" depart="1189"><route edges="EdgeW2 EdgeS1"/></vehicle>
	<vehicle id="191" depart="1193"><route edges="EdgeW2 EdgeE1"/></vehicle>
	<vehicle id="192" depart="1194"><route edges="EdgeS2 EdgeE1"/></vehicle>
	<vehicle id="193" depart="1200"><route edges="EdgeN2 EdgeE1"/></vehicle>
	<vehicle id="194" depart="1205"><route edges="EdgeE2 EdgeS1"/></vehicle>
	<vehicle id="195" depart="1205"><route edges="EdgeS2 EdgeW1"/></vehicle>
	<vehicle id="196" depart="1210"><route edges="EdgeS2 EdgeN1"/></vehicle>
	<vehicle id="197" depart="1212"><route edges="EdgeW2 EdgeS1"/></vehicle>
	<vehicle id="198" depart="1216"><route edges="EdgeE2 EdgeS1"/></vehicle>
	<vehicle id="199" depart="1225"><route edges="EdgeE2 EdgeW1"/></vehicle>
	<vehicle id="200" depart="1229"><route edges="EdgeW2 EdgeN1"/></vehicle>
	<vehicle id="201" depart="1230"><route edges="EdgeN2 EdgeE1"/></vehicle>
	<vehicle id="202" depart="1232"><route edges="EdgeW2 EdgeE1"/></vehicle>
	<vehicle id="203" depart="1257"><route edges="EdgeE2 EdgeN1"/></vehicle>
	<vehicle id="204" depart="1258"><route edges="EdgeW2 EdgeE1"/></vehicle>
	<vehicle id="205" depart="1260"><route edges="EdgeN2 EdgeW1"/></vehicle>
	<vehicle id="206" depart="1272"><route edges="EdgeS2 EdgeN1"/></vehicle>
	<vehicle id="207" depart="1272"><route edges="EdgeS2 EdgeE1"/></vehicle>
	<vehicle id="208" depart="1274"><route edges="EdgeE2 EdgeS1"/></vehicle>
	<vehicle id="209" depart="1276"><route edges="EdgeE2 EdgeN1"/></vehicle>
	<vehicle id="210" depart="1276"><route edges="EdgeW2 EdgeS1"/></vehicle>
	<vehicle id="211" depart="1281"><route edges="EdgeE2 EdgeS1"/></vehicle>
	<vehicle id="212" depart="1283"><route edges="EdgeW2 EdgeN1"/></vehicle>
	<vehicle id="213" depart="1284"><route edges="EdgeN2 EdgeE1"/></vehicle>
	<vehicle id="214" depart="1286"><route edges="EdgeN2 EdgeE1"/></vehicle>
	<vehicle id="215" depart="1297"><route edges="EdgeS2 EdgeE1"/></vehicle>
	<vehicle id="216" depart="1300"><route edges="EdgeW2 EdgeE1"/></vehicle>
	<vehicle id="217" depart="1303"><route edges="EdgeS2 EdgeN1"/></vehicle>
	<vehicle id="218" depart="1306"><route edges="EdgeN2 EdgeS1"/></vehicle>
	<vehicle id="219" depart="1310"><route edges="EdgeW2 EdgeS1"/></vehicle>
	<vehicle id="220" depart="1325"><route edges="EdgeN2 EdgeS1"/></vehicle>
	<vehicle id="221" depart="1325"><route edges="EdgeN2 EdgeE1"/></vehicle>
	<vehicle id="222" depart="1332"><route edges="EdgeN2 EdgeS1"/></vehicle>
	<vehicle id="223" depart="1332"><route edges="EdgeW2 EdgeS1"/></vehicle>
	<vehicle id="224" depart="1335"><route edges="EdgeW2 EdgeN1"/></vehicle>
	<vehicle id="225" depart="1359"><route edges="EdgeE2 EdgeN1"/></vehicle>
	<vehicle id="226" depart="1363"><route edges="EdgeS2 EdgeE1"/></vehicle>
	<vehicle id="227" depart="1365"><route edges="EdgeS2 EdgeN1"/></vehicle>
	<vehicle id="228" depart="1365"><route edges="EdgeS2 EdgeN1"/></vehicle>
	<vehicle id="229" depart="1369"><route edges="EdgeS2 EdgeE1"/></vehicle>
	<vehicle id="230" depart="1369"><route edges="EdgeN2 EdgeW1"/></vehicle>
	<vehicle id="231" depart="1370"><route edges="EdgeN2 EdgeE1"/></vehicle>
	<vehicle id="232" depart="1377"><route edges="EdgeE2 EdgeS1"/></vehicle>
	<vehicle id="233" depart="1377"><route edges="EdgeN2 EdgeW1"/></vehicle>
	<vehicle id="234" depart="1385"><route edges="EdgeE2 EdgeN1"/></vehicle>
	<vehicle id="235" depart="1388"><route edges="EdgeW2 EdgeS1"/></vehicle>
	<vehicle id="236" depart="1388"><route edges="EdgeE2 EdgeS1"/></vehicle>
	<vehicle id="237" depart="1394"><route edges="EdgeS2 EdgeW1"/></vehicle>
	<vehicle id="238" depart="1400"><route edges="EdgeW2 EdgeN1"/></vehicle>
	<vehicle id="239" depart="1409"><route edges="EdgeE2 EdgeW1"/></vehicle>
	<vehicle id="240" depart="1410"><route edges="EdgeN2 EdgeE1"/></vehicle>
	<vehicle id="241" depart="1413"><route edges="EdgeW2 EdgeE1"/></vehicle>
	<vehicle id="242" depart="1414"><route edges="EdgeW2 EdgeN1"/></vehicle>
	<vehicle id="243" depart="1436"><route edges="EdgeW2 EdgeE1"/></vehicle>
	<vehicle id="244" depart="1438"><route edges="EdgeS2 EdgeE1"/></vehicle>
	<vehicle id="245" depart="1439"><route edges="EdgeE2 EdgeW1"/></vehicle>
	<vehicle id="246" depart="1443"><route edges="EdgeN2 EdgeE1"/></vehicle>
	<vehicle id="247" depart="1446"><route edges="EdgeS2 EdgeW1"/></vehicle>
	<vehicle id="248" depart="1447"><route edges="EdgeE2 EdgeN1"/></vehicle>
	<vehicle id="249" depart="1448"><route edges="EdgeW2 EdgeE1"/></vehicle>
	<vehicle id="250" depart="1449"><route edges="EdgeN2 EdgeE1"/></vehicle>
	<vehicle id="251" depart="1459"><route edges="EdgeE2 EdgeN1"/></vehicle>
	<vehicle id="252" depart="1463"><route edges="EdgeW2 EdgeN1"/></vehicle>
	<vehicle id="253" depart="1468"><route edges="EdgeN2 EdgeE1"/></vehicle>
	<vehicle id="254" depart="1479"><route edges="EdgeN2 EdgeW1"/></vehicle>
	<vehicle id="255" depart="1489"><route edges="EdgeW2 EdgeS1"/></vehicle>
	<vehicle id="256" depart="1496"><route edges="EdgeN2 EdgeW1"/></vehicle>
	<vehicle id="257" depart="1496"><route edges="EdgeW2 EdgeN1"/></vehicle>
	<vehicle id="258" depart="1499"><route edges="EdgeS2 EdgeE1"/></vehicle>
	<vehicle id="259" depart="1503"><route edges="EdgeE2 EdgeN1"/></vehicle>
	<vehicle id="260" depart="1504"><route edges="EdgeN2 EdgeS1"/></vehicle>
	<vehicle id="261" depart="1523"><route edges="EdgeW2 EdgeE1"/></vehicle>
	<vehicle id="262" depart="1529"><route edges="EdgeE2 EdgeN1"/></vehicle>
	<vehicle id="263" depart="1549"><route edges="EdgeE2 EdgeW1"/></vehicle>
	<vehicle id="264" depart="1561"><route edges="EdgeE2 EdgeW1"/></vehicle>
	<vehicle id="265" depart="1564"><route edges="EdgeW2 EdgeS1"/></vehicle>
	<vehicle id="266" depart="1573"><route edges="EdgeW2 EdgeE1"/></vehicle>
	<vehicle id="267" depart="1585"><route edges="EdgeW2 EdgeE1"/></vehicle>
	<vehicle id="268" depart="1591"><route edges="EdgeW2 EdgeE1"/></vehicle>
	<vehicle id="269" depart="1593"><route edges="EdgeS2 EdgeN1"/></vehicle>
	<vehicle id="270" depart="1593"><route edges="EdgeE2 EdgeW1"/></vehicle>
	<vehicle id="271" depart="1595"><route edges="EdgeN2 EdgeS1"/></vehicle>
	<vehicle id="272" depart="1602"><route edges="EdgeN2 EdgeS1"/></vehicle>
	<vehicle id="273" depart="1603"><route edges="EdgeE2 EdgeS1"/></vehicle>
	<vehicle id="274" depart="1611"><route edges="EdgeE2 EdgeN1"/></vehicle>
	<vehicle id="275" depart="1618"><route edges="EdgeS2 EdgeW1"/></vehicle>
	<vehicle id="276" depart="1623"><route edges="EdgeW2 EdgeS1"/></vehicle>
	<vehicle id="277" depart="1629"><route edges="EdgeE2 EdgeS1"/></vehicle>
	<vehicle id="278" depart="1639"><route edges="EdgeW2 EdgeS1"/></vehicle>
	<vehicle id="279" depart="1650"><route edges="EdgeN2 EdgeS1"/></vehicle>
	<vehicle id="280" depart="1651"><route edges="EdgeW2 EdgeN1"/></vehicle>
	<vehicle id="281" depart="1653"><route edges="EdgeW2 EdgeN1"/></vehicle>
	<vehicle id="282" depart="1657"><route edges="EdgeS2 EdgeE1"/></vehicle>
	<vehicle id="283" depart="1662"><route edges="EdgeN2 EdgeS1"/></vehicle>
	<vehicle id="284" depart="1666"><route edges="EdgeN2 EdgeE1"/></vehicle>
	<vehicle id="285" depart="1670"><route edges="EdgeE2 EdgeW1"/></vehicle>
	<vehicle id="286" depart="1680"><route edges="EdgeN2 EdgeS1"/></vehicle>
	<vehicle id="287" depart="1687"><route edges="EdgeE2 EdgeW1"/></vehicle>
	<vehicle id="288" depart="1689"><route edges="EdgeW2 EdgeE1"/></vehicle>
	<vehicle id="289" depart="1695"><route edges="EdgeE2 EdgeN1"/></vehicle>
	<vehicle id="290" depart="1696"><route edges="EdgeE2 EdgeS1"/></vehicle>
	<vehicle id="291" depart="1697"><route edges="EdgeE2 EdgeW1"/></vehicle>
	<vehicle id="292" depart="1706"><route edges="EdgeE2 EdgeW1"/></vehicle>
	<vehicle id="293" depart="1711"><route edges="EdgeS2 EdgeN1"/></vehicle>
	<vehicle id="294" depart="1712"><route edges="EdgeS2 EdgeE1"/></vehicle>
	<vehicle id="295" depart="1712"><route edges="EdgeS2 EdgeE1"/></vehicle>
	<vehicle id="296" depart="1715"><route edges="EdgeN2 EdgeS1"/></vehicle>
	<vehicle id="297" depart="1715"><route edges="EdgeS2 EdgeE1"/></vehicle>
	<vehicle id="298" depart="1720"><route edges="EdgeE2 EdgeW1"/></vehicle>
	<vehicle id="299" depart="1722"><route edges="EdgeN2 EdgeW1"/></vehicle>
	<vehicle id="300" depart="1723"><route edges="EdgeE2 EdgeS1"/></vehicle>
	<vehicle id="301" depart="1744"><route edges="EdgeW2 EdgeE1"/></vehicle>
	<vehicle id="302" depart="1747"><route edges="EdgeW2 EdgeE1"/></vehicle>
	<vehicle id="303" depart="1747"><route edges="EdgeE2 EdgeW1"/></vehicle>
	<vehicle id="304" depart="1752"><route edges="EdgeN2 EdgeW1"/></vehicle>
	<vehicle id="305" depart="1757"><route edges="EdgeW2 EdgeS1"/></vehicle>
	<vehicle id="306" depart="1760"><route edges="EdgeW2 EdgeE1"/></vehicle>
	<vehicle id="307" depart="1762"><route edges="EdgeS2 EdgeE1"/></vehicle>
	<vehicle id="308" depart="1771"><route edges="EdgeN2 EdgeE1"/></vehicle>
	<vehicle id="309" depart="1777"><route edges="EdgeS2 EdgeW1"/></vehicle>
	<vehicle id="310" depart="1778"><route edges="EdgeS2 EdgeE1"/></vehicle>
	<vehicle id="311" depart="1783"><route edges="EdgeN2 EdgeW1"/></vehicle>
	<vehicle id="312" depart="1790"><route edges="EdgeN2 EdgeS1"/></vehicle>
	<vehicle id="313" depart="1791"><route edges="EdgeE2 EdgeW1"/></vehicle>
	<vehicle id="314" depart="1794"><route edges="EdgeS2 EdgeE1"/></vehicle>
	<vehicle id="315" depart="1795"><route edges="EdgeS2 EdgeN1"/></vehicle>
	<vehicle id="316" depart="1798"><route edges="EdgeW2 EdgeS1"/></vehicle>
	<vehicle id="317" depart="1801"><route edges="EdgeS2 EdgeE1"/></vehicle>
	<vehicle id="318" depart="1802"><route edges="EdgeS2 EdgeN1"/></vehicle>
	<vehicle id="319" depart="1807"><route edges="EdgeE2 EdgeW1"/></vehicle>
	<vehicle id="320" depart="1812"><route edges="EdgeE2 EdgeW1"/></vehicle>
	<vehicle id="321" depart="1814"><route edges="EdgeN2 EdgeE1"/></vehicle>
	<vehicle id="322" depart="1825"><route edges="EdgeE2 EdgeN1"/></vehicle>
	<vehicle id="323" depart="1827"><route edges="EdgeN2 EdgeW1"/></vehicle>
	<vehicle id="324" depart="1829"><route edges="EdgeW2 EdgeS1"/></vehicle>
	<vehicle id="325" depart="1831"><route edges="EdgeN2 EdgeS1"/></vehicle>
	<vehicle id="326" depart="1832"><route edges="EdgeS2 EdgeW1"/></vehicle>
	<vehicle id="327" depart="1835"><route edges="EdgeS2 EdgeN1"/></vehicle>
	<vehicle id="328" depart="1838"><route edges="EdgeW2 EdgeS1"/></vehicle>
	<vehicle id="329" depart="1844"><route edges="EdgeW2 EdgeE1"/></vehicle>
	<vehicle id="330" depart="1845"><route edges="EdgeE2 EdgeN1"/></vehicle>
	<vehicle id="331" depart="1847"><route edges="EdgeE2 EdgeW1"/></vehicle>
	<vehicle id="332" depart="1856"><route edges="EdgeW2 EdgeN1"/></vehicle>
	<vehicle id="333" depart="1858"><route edges="EdgeS2 EdgeN1"/></vehicle>
	<vehicle id="334" depart="1862"><route edges="EdgeW2 EdgeS1"/></vehicle>
	<vehicle id="335" depart="1872"><route edges="EdgeW2 EdgeE1"/></vehicle>
	<vehicle id="336" depart="1879"><route edges="EdgeN2 EdgeE1"/></vehicle>
	<vehicle id="337" depart="1890"><route edges="EdgeN2 EdgeE1"/></vehicle>
	<vehicle id="338" depart="1899"><route edges="EdgeE2 EdgeN1"/></vehicle>
	<vehicle id="339" depart="1900"><route edges="EdgeW2 EdgeN1"/></vehicle>
	<vehicle id="340" depart="1901"><route edges="EdgeN2 EdgeW1"/></vehicle>
	<vehicle id="341" depart="1902"><route edges="EdgeE2 EdgeN1"/></vehicle>
	<vehicle id="342" depart="1904"><route edges="EdgeN2 EdgeS1"/></vehicle>
	<vehicle id="343" depart="1912"><route edges="EdgeS2 EdgeE1"/></vehicle>
	<vehicle id="344" depart="1914"><route edges="EdgeS2 EdgeN1"/></vehicle>
	<vehicle id="345" depart="1919"><route edges="EdgeW2 EdgeE1"/></vehicle>
	<vehicle id="346" depart="1928"><route edges="EdgeS2 EdgeE1"/></vehicle>
	<vehicle id="347" depart="1930"><route edges="EdgeW2 EdgeN1"/></vehicle>
	<vehicle id="348" depart="1932"><route edges="EdgeN2 EdgeW1"/></vehicle>
	<vehicle id="349" depart="1934"><route edges="EdgeS2 EdgeE1"/></vehicle>
	<vehicle id="350" depart="1939"><route edges="EdgeS2 EdgeW1"/></vehicle>
	<vehicle id="351" depart="1943"><route edges="EdgeN2 EdgeE1"/></vehicle>
	<vehicle id="352" depart="1944"><route edges="EdgeE2 EdgeS1"/></vehicle>
	<vehicle id="353" depart="1946"><route edges="EdgeN2 EdgeW1"/></vehicle>
	<vehicle id="354" depart="1967"><route edges="EdgeW2 EdgeN1"/></vehicle>
	<vehicle id="355" depart="1968"><route edges="EdgeW2 EdgeE1"/></vehicle>
	<vehicle id="356" depart="1969"><route edges="EdgeW2 EdgeN1"/></vehicle>
	<vehicle id="357" depart="1972"><route edges="EdgeW2 EdgeS1"/></vehicle>
	<vehicle id="358" depart="1983"><route edges="EdgeN2 EdgeE1"/></vehicle>
	<vehicle id="359" depart="1993"><route edges="EdgeN2 EdgeS1"/></vehicle>
	<vehicle id="360" depart="1995"><route edges="EdgeN2 EdgeE1"/></vehicle>
	<vehicle id="361" depart="2001"><route edges="EdgeS2 EdgeN1"/></vehicle>
	<vehicle id="362" depart="2008"><route edges="EdgeW2 EdgeN1"/></vehicle>
	<vehicle id="363" depart="2022"><route edges="EdgeE2 EdgeW1"/></vehicle>
	<vehicle id="364" depart="2024"><route edges="EdgeW2 EdgeS1"/></vehicle>
	<vehicle id="365" depart="2030"><route edges="EdgeN2 EdgeW1"/></vehicle>
	<vehicle id="366" depart="2032"><route edges="EdgeN2 EdgeS1"/></vehicle>
	<vehicle id="367" depart="2035"><route edges="EdgeW2 EdgeS1"/></vehicle>
	<vehicle id="368" depart="2041"><route edges="EdgeN2 EdgeW1"/></vehicle>
	<vehicle id="369" depart="2047"><route edges="EdgeE2 EdgeW1"/></vehicle>
	<vehicle id="370" depart="2053"><route edges="EdgeE2 EdgeN1"/></vehicle>
	<vehicle id="371" depart="2059"><route edges="EdgeE2 EdgeS1"/></vehicle>
	<vehicle id="372" depart="2060"><route edges="EdgeN2 EdgeE1"/></vehicle>
	<vehicle id="373" depart="2061"><route edges="EdgeS2 EdgeN1"/></vehicle>
	<vehicle id="374" depart="2074"><route edges="EdgeN2 EdgeE1"/></vehicle>
	<vehicle id="375" depart="2077"><route edges="EdgeS2 EdgeW1"/></vehicle>
	<vehicle id="376" depart="2078"><route edges="EdgeE2 EdgeW1"/></vehicle>
	<vehicle id="377" depart="2085"><route edges="EdgeN2 EdgeW1"/></vehicle>
	<vehicle id="378" depart="2087"><route edges="EdgeW2 EdgeS1"/></vehicle>
	<vehicle id="379" depart="2088"><route edges="EdgeW2 EdgeE1"/></vehicle>
	<vehicle id="380" depart="2088"><route edges="EdgeE2 EdgeS1"/></vehicle>
	<vehicle id="381" depart="2088"><route edges="EdgeS2 EdgeW1"/></vehicle>
	<vehicle id="382" depart="2089"><route edges="EdgeE2 EdgeW1"/></vehicle>
	<vehicle id="383" depart="2092"><route edges="EdgeW2 EdgeS1"/></vehicle>
	<vehicle id="384" depart="2093"><route edges="EdgeE2 EdgeN1"/></vehicle>
	<vehicle id="385" depart="2099"><route edges="EdgeN2 EdgeE1"/></vehicle>
	<vehicle id="386" depart="2101"><route edges="EdgeN2 EdgeW1"/></vehicle>
	<vehicle id="387" depart="2108"><route edges="EdgeN2 EdgeW1"/></vehicle>
	<vehicle id="388" depart="2117"><route edges="EdgeW2 EdgeE1"/></vehicle>
	<vehicle id="389" depart="2118"><route edges="EdgeE2 EdgeW1"/></vehicle>
	<vehicle id="390" depart="2120"><route edges="EdgeE2 EdgeS1"/></vehicle>
	<vehicle id="391" depart="2121"><route edges="EdgeN2 EdgeS1"/></vehicle>
	<vehicle id="392" depart="2122"><route edges="EdgeE2 EdgeN1"/></vehicle>
	<vehicle id="393" depart="2123"><route edges="EdgeW2 EdgeE1"/></vehicle>
	<vehicle id="394" depart="2123"><route edges="EdgeW2 EdgeS1"/></vehicle>
	<vehicle id="395" depart="2129"><route edges="EdgeW2 EdgeE1"/></vehicle>
	<vehicle id="396" depart="2130"><route edges="EdgeS2 EdgeW1"/></vehicle>
	<vehicle id="397" depart="2131"><route edges="EdgeE2 EdgeS1"/></vehicle>
	<vehicle id="398" depart="2134"><route edges="EdgeW2 EdgeE1"/></vehicle>
	<vehicle id="399" depart="2137"><route edges="EdgeW2 EdgeN1"/></vehicle>
	<vehicle id="400" depart="2150"><route edges="EdgeE2 EdgeN1"/></vehicle>
	<vehicle id="401" depart="2151"><route edges="EdgeE2 EdgeW1"/></vehicle>
	<vehicle id="402" depart="2153"><route edges="EdgeW2 EdgeE1"/></vehicle>
	<vehicle id="403" depart="2160"><route edges="EdgeS2 EdgeE1"/></vehicle>
	<vehicle id="404" depart="2168"><route edges="EdgeE2 EdgeS1"/></vehicle>
	<vehicle id="405" depart="2170"><route edges="EdgeE2 EdgeW1"/></vehicle>