<?xml version="1.0" encoding="UTF-8"?>
<routes xmlns:xsi="http://www.w3.org/2001/XMLSchema-instance" xsi:noNamespaceSchemaLocation="http://sumo.dlr.de/xsd/routes_file.xsd">
	<vehicle id="0" depart="1"><route edges="EdgeW2 EdgeS1"/></vehicle>
	<vehicle id="1" depart="7"><route edges="EdgeE2 EdgeN1"/></vehicle>
	<vehicle id="2" depart="16"><route edges="EdgeW2 EdgeE1"/></vehicle>
	<vehicle id="3" depart="17"><route edges="EdgeN2 EdgeS1"/></vehicle>
	<vehicle id="4" depart="29"><route edges="EdgeE2 EdgeW1"/></vehicle>
	<vehicle id="5" depart="30"><route edges="EdgeE2 EdgeS1"/></vehicle>
	<vehicle id="6" depart="55"><route edges="EdgeS2 EdgeW1"/></vehicle>
	<vehicle id="7" depart="70"><route edges="EdgeS2 EdgeN1"/></vehicle>
	<vehicle id="8" depart="74"><route edges="EdgeS2 EdgeN1"/></vehicle>
	<vehicle id="9" depart="82"><route edges="EdgeN2 EdgeS1"/></vehicle>
	<vehicle id="10" depart="88"><route edges="EdgeE2 EdgeS1"/></vehicle>
	<vehicle id="11" depart="93"><route edges="EdgeW2 EdgeN1"/></vehicle>
	<vehicle id="12" depart="103"><route edges="EdgeW2 EdgeE1"/></vehicle>
	<vehicle id="13" depart="124"><route edges="EdgeN2 EdgeW1"/></vehicle>
	<vehicle id="14" depart="131"><route edges="EdgeS2 EdgeW1"/></vehicle>
	<vehicle id="15" depart="135"><route edges="EdgeW2 EdgeS1"/></vehicle>
	<vehicle id="16" depart="162"><route edges="EdgeS2 EdgeN1"/></vehicle>
	<vehicle id="17" depart="166"><route edges="EdgeS2 EdgeN1"/></vehicle>
	<vehicle id="18" depart="170"><route edges="EdgeN2 EdgeE1"/></vehicle>
	<vehicle id="19" depart="175"><route edges="EdgeW2 EdgeS1"/></vehicle>
	<vehicle id="20" depart="176"><route edges="EdgeN2 EdgeW1"/></vehicle>
	<vehicle id="21" depart="178"><route edges="EdgeW2 EdgeE1"/></vehicle>
	<vehicle id="22" depart="182"><route edges="EdgeS2 EdgeN1"/></vehicle>
	<vehicle id="23" depart="184"><route edges="EdgeE2 EdgeN1"/></vehicle>
	<vehicle id="24" depart="194"><route edges="EdgeS2 EdgeE1"/></vehicle>
	<vehicle id="25" depart="195"><route edges="EdgeS2 EdgeE1"/></vehicle>
	<vehicle id="26" depart="199"><route edges="EdgeE2 EdgeN1"/></vehicle>
	<vehicle id="27" depart="204"><route edges="EdgeE2 EdgeN1"/></vehicle>
	<vehicle id="28" depart="208"><route edges="EdgeW2 EdgeE1"/></vehicle>
	<vehicle id="29" depart="210"><route edges="EdgeE2 EdgeN1"/></vehicle>
	<vehicle id="30" depart="211"><route edges="EdgeE2 EdgeW1"/></vehicle>
	<vehicle id="31" depart="215"><route edges="EdgeS2 EdgeN1"/></vehicle>
	<vehicle id="32" depart="222"><route edges="EdgeN2 EdgeE1"/></vehicle>
	<vehicle id="33" depart="225"><route edges="EdgeW2 EdgeN1"/></vehicle>
	<vehicle id="34" depart="231"><route edges="EdgeE2 EdgeW1"/></vehicle>
	<vehicle id="35" depart="238"><route edges="EdgeE2 EdgeW1"/></vehicle>
	<vehicle id="36" depart="245"><route edges="EdgeS2 EdgeW1"/></vehicle>
	<vehicle id="37" depart="248"><route edges="EdgeS2 EdgeW1"/></vehicle>
	<vehicle id="38" depart="248"><route edges="EdgeW2 EdgeS1"/></vehicle>
	<vehicle id="39" depart="250"><route edges="EdgeN2 EdgeW1"/></vehicle>
	<vehicle id="40" depart="258"><route edges="EdgeE2 EdgeN1"/></vehicle>
	<vehicle id="41" depart="263"><route edges="EdgeE2 EdgeW1"/></vehicle>
	<vehicle id="42" depart="265"><route edges="EdgeS2 EdgeE1"/></vehicle>
	<vehicle id="43" depart="302"><route edges="EdgeS2 EdgeE1"/></vehicle>
	<vehicle id="44" depart="314"><route edges="EdgeE2 EdgeN1"/></vehicle>
	<vehicle id="45" depart="323"><route edges="EdgeE2 EdgeW1"/></vehicle>
	<vehicle id="46" depart="330"><route edges="EdgeS2 EdgeN1"/></vehicle>
	<vehicle id="47" depart="344"><route edges="EdgeE2 EdgeN1"/></vehicle>
	<vehicle id="48" depart="357"><route edges="EdgeS2 EdgeN1"/></vehicle>
	<vehicle id="49" depart="364"><route edges="EdgeW2 EdgeS1"/></vehicle>
	<vehicle id="50" depart="380"><route edges="EdgeS2 EdgeW1"/></vehicle>
	<vehicle id="51" depart="384"><route edges="EdgeN2 EdgeE1"/></vehicle>
	<vehicle id="52" depart="386"><route edges="EdgeE2 EdgeW1"/></vehicle>
	<vehicle id="53" depart="393"><route edges="EdgeS2 EdgeE1"/></vehicle>
	<vehicle id="54" depart="414"><route edges="EdgeE2 EdgeN1"/></vehicle>
	<vehicle id="55" depart="420"><route edges="EdgeW2 EdgeS1"/></vehicle>
	<vehicle id="56" depart="423"><route edges="EdgeW2 EdgeE1"/></vehicle>
	<vehicle id="57" depart="424"><route edges="EdgeE2 EdgeS1"/></vehicle>
	<vehicle id="58" depart="433"><route edges="EdgeN2 EdgeS1"/></vehicle>
	<vehicle id="59" depart="452"><route edges="EdgeN2 EdgeE1"/></vehicle>
	<vehicle id="60" depart="464"><route edges="EdgeW2 EdgeE1"/></vehicle>
	<vehicle id="61" depart="466"><route edges="EdgeE2 EdgeS1"/></vehicle>
	<vehicle id="62" depart="469"><route edges="EdgeW2 EdgeN1"/></vehicle>
	<vehicle id="63" depart="483"><route edges="EdgeE2 EdgeN1"/></vehicle>
	<vehicle id="64" depart="487"><route edges="EdgeS2 EdgeW1"/></vehicle>
	<vehicle id="65" depart="489"><route edges="EdgeE2 EdgeS1"/></vehicle>
	<vehicle id="66" depart="500"><route edges="EdgeS2 EdgeN1"/></vehicle>
	<vehicle id="67" depart="502"><route edges="EdgeE2 EdgeW1"/></vehicle>
	<vehicle id="68" depart="505"><route edges="EdgeW2 EdgeE1"/></vehicle>
	<vehicle id="69" depart="511"><route edges="EdgeS2 EdgeW1"/></vehicle>
	<vehicle id="70" depart="525"><route edges="EdgeW2 EdgeE1"/></vehicle>
	<vehicle id="71" depart="535"><route edges="EdgeN2 EdgeS1"/></vehicle>
	<vehicle id="72" depart="540"><route edges="EdgeW2 EdgeS1"/></vehicle>
	<vehicle id="73" depart="561"><route edges="EdgeE2 EdgeN1"/></vehicle>
	<vehicle id="74" depart="566"><route edges="EdgeE2 EdgeS1"/></vehicle>
	<vehicle id="75" depart="573"><route edges="EdgeS2 EdgeW1"/></vehicle>
	<vehicle id="76" depart="581"><route edges="EdgeS2 EdgeN1"/></vehicle>
	<vehicle id="77" depart="582"><route edges="EdgeN2 EdgeW1"/></vehicle>
	<vehicle id="78" depart="586"><route edges="EdgeN2 EdgeS1"/></vehicle>
	<vehicle id="79" depart="591"><route edges="EdgeS2 EdgeE1"/></vehicle>
	<vehicle id="80" depart="602"><route edges="EdgeW2 EdgeE1"/></vehicle>
	<vehicle id="81" depart="610"><route edges="EdgeE2 EdgeS1"/></vehicle>
	<vehicle id="82" depart="621"><route edges="EdgeE2 EdgeS1"/></vehicle>
	<vehicle id="83" depart="625"><route edges="EdgeW2 EdgeS1"/></vehicle>
	<vehicle id="84" depart="625"><route edges="EdgeN2 EdgeE1"/></vehicle>
	<vehicle id="85" depart="630"><route edges="EdgeS2 EdgeE1"/></vehicle>
	<vehicle id="86" depart="634"><route edges="EdgeS2 EdgeE1"/></vehicle>
	<vehicle id="87" depart="635"><route edges="EdgeE2 EdgeW1"/></vehicle>
	<vehicle id="88" depart="637"><route edges="EdgeS2 EdgeN1"/></vehicle>
	<vehicle id="89" depart="638"><route edges="EdgeS2 EdgeN1"/></vehicle>
	<vehicle id="90" depart="640"><route edges="EdgeN2 EdgeW1"/></vehicle>
	<vehicle id="91" depart="645"><route edges="EdgeN2 EdgeW1"/></vehicle>
	<vehicle id="92" depart="651"><route edges="EdgeS2 EdgeE1"/></vehicle>
	<vehicle id="93" depart="653"><route edges="EdgeS2 EdgeW1"/></vehicle>
	<vehicle id="94" depart="660"><route edges="EdgeS2 EdgeW1"/></vehicle>
	<vehicle id="95" depart="666"><route edges="EdgeS2 EdgeN1"/></vehicle>
	<vehicle id="96" depart="669"><route edges="EdgeE2 EdgeN1"/></vehicle>
	<vehicle id="97" depart="684"><route edges="EdgeN2 EdgeS1"/></vehicle>
	<vehicle id="98" depart="692"><route edges="EdgeE2 EdgeW1"/></vehicle>
	<vehicle id="99" depart="699"><route edges="EdgeW2 EdgeE1"/></vehicle>
	<vehicle id="100" depart="703"><route edges="EdgeN2 EdgeE1"/></vehicle>
	<vehicle id="101" depart="707"><route edges="EdgeS2 EdgeE1"/></vehicle>
	<vehicle id="102" depart="709"><route edges="EdgeS2 EdgeW1"/></vehicle>
	<vehicle id="103" depart="715"><route edges="EdgeE2 EdgeW1"/></vehicle>
	<vehicle id="104" depart="722"><route edges="EdgeE2 EdgeS1"/></vehicle>
	<vehicle id="105" depart="728"><route edges="EdgeW2 EdgeE1"/></vehicle>
	<vehicle id="106" depart="736"><route edges="EdgeE2 EdgeN1"/></vehicle>
	<vehicle id="107" depart="739"><route edges="EdgeW2 EdgeE1"/></vehicle>
	<vehicle id="108" depart="750"><route edges="EdgeN2 EdgeW1"/></vehicle>
	<vehicle id="109" depart="754"><route edges="EdgeN2 EdgeW1"/></vehicle>
	<vehicle id="110" depart="760"><route edges="EdgeN2 EdgeE1"/></vehicle>
	<vehicle id="111" depart="773"><route edges="EdgeN2 EdgeE1"/></vehicle>
	<vehicle id="112" depart="777"><route edges="EdgeS2 EdgeN1"/></vehicle>
	<vehicle id="113" depart="783"><route edges="EdgeE2 EdgeN1"/></vehicle>
	<vehicle id="114" depart="789"><route edges="EdgeS2 EdgeN1"/></vehicle>
	<vehicle id="115" depart="792"><route edges="EdgeN2 EdgeE1"/></vehicle>
	<vehicle id="116" depart="793"><route edges="EdgeW2 EdgeE1"/></vehicle>
	<vehicle id="117" depart="793"><route edges="EdgeE2 EdgeS1"/></vehicle>
	<vehicle id="118" depart="794"><route edges="EdgeE2 EdgeS1"/></vehicle>
	<vehicle id="119" depart="802"><route edges="EdgeN2 EdgeW1"/></vehicle>
	<vehicle id="120" depart="806"><route edges="EdgeN2 EdgeW1"/></vehicle>
	<vehicle id="121" depart="810"><route edges="EdgeS2 EdgeE1"/></vehicle>
	<vehicle id="122" depart="811"><route edges="EdgeE2 EdgeN1"/></vehicle>
	<vehicle id="123" depart="824"><route edges="EdgeW2 EdgeE1"/></vehicle>
	<vehicle id="124" depart="826"><route edges="EdgeW2 EdgeE1"/></vehicle>
	<vehicle id="125" depart="842"><route edges="EdgeN2 EdgeW1"/></vehicle>
	<vehicle id="126" depart="851"><route edges="EdgeW2 EdgeE1"/></vehicle>
	<vehicle id="127" depart="862"><route edges="EdgeS2 EdgeW1"/></vehicle>
	<vehicle id="128" depart="882"><route edges="EdgeE2 EdgeW1"/></vehicle>
	<vehicle id="129" depart="885"><route edges="EdgeW2 EdgeS1"/></vehicle>
	<vehicle id="130" depart="898"><route edges="EdgeS2 EdgeW1"/></vehicle>
	<vehicle id="131" depart="904"><route edges="EdgeS2 EdgeE1"/></vehicle>
	<vehicle id="132" depart="909"><route edges="EdgeN2 EdgeS1"/></vehicle>
	<vehicle id="133" depart="909"><route edges="EdgeE2 EdgeW1"/></vehicle>
	<vehicle id="134" depart="931"><route edges="EdgeE2 EdgeN1"/></vehicle>
	<vehicle id="135" depart="934"><route edges="EdgeE2 EdgeW1"/></vehicle>
	<vehicle id="136" depart="949"><route edges="EdgeS2 EdgeE1"/></vehicle>
	<vehicle id="137" depart="952"><route edges="EdgeS2 EdgeW1"/></vehicle>
	<vehicle id="138" depart="954"><route edges="EdgeE2 EdgeW1"/></vehicle>
	<vehicle id="139" depart="958"><route edges="EdgeW2 EdgeS1"/></vehicle>
	<vehicle id="140" depart="970"><route edges="EdgeE2 EdgeW1"/></vehicle>
	<vehicle id="141" depart="983"><route edges="EdgeN2 EdgeS1"/></vehicle>
	<vehicle id="142" depart="993"><route edges="EdgeN2 EdgeW1"/></vehicle>
	<vehicle id="143" depart="995"><route edges="EdgeN2 EdgeE1"/></vehicle>
	<vehicle id="144" depart="996"><route edges="EdgeW2 EdgeE1"/></vehicle>
	<vehicle id="145" depart="996"><route edges="EdgeE2 EdgeS1"/></vehicle>
	<vehicle id="146" depart="1001"><route edges="EdgeW2 EdgeS1"/></vehicle>
	<vehicle id="147" depart="1011"><route edges="EdgeN2 EdgeW1"/></vehicle>
	<vehicle id="148" depart="1015"><route edges="EdgeS2 EdgeE1"/></vehicle>
	<vehicle id="149" depart="1019"><route edges="EdgeN2 EdgeS1"/></vehicle>
	<vehicle id="150" depart="1025"><route edges="EdgeE2 EdgeN1"/></vehicle>
	<vehicle id="151" depart="1025"><route edges="EdgeN2 EdgeS1"/></vehicle>
	<vehicle id="152" depart="1026"><route edges="EdgeS2 EdgeW1"/></vehicle>
	<vehicle id="153" depart="1042"><route edges="EdgeN2 EdgeE1"/></vehicle>
	<vehicle id="154" depart="1044"><route edges="EdgeE2 EdgeS1"/></vehicle>
	<vehicle id="155" depart="1049"><route edges="EdgeW2 EdgeE1"/></vehicle>
	<vehicle id="156" depart="1062"><route edges="EdgeW2 EdgeE1"/></vehicle>
	<vehicle id="157" depart="1064"><route edges="EdgeE2 EdgeW1"/></vehicle>
	<vehicle id="158" depart="1068"><route edges="EdgeW2 EdgeN1"/></vehicle>
	<vehicle id="159" depart="1072"><route edges="EdgeN2 EdgeS1"/></vehicle>
	<vehicle id="160" depart="1081"><route edges="EdgeE2 EdgeS1"/></vehicle>
	<vehicle id="161" depart="1096"><route edges="EdgeN2 EdgeW1"/></vehicle>
	<vehicle id="162" depart="1098"><route edges="EdgeW2 EdgeE1"/></vehicle>
	<vehicle id="163" depart="1099"><route edges="EdgeE2 EdgeS1"/></vehicle>
	<vehicle id="164" depart="1101"><route edges="EdgeW2 EdgeS1"/></vehicle>
	<vehicle id="165" depart="1102"><route edges="EdgeE2 EdgeS1"/></vehicle>
	<vehicle id="166" depart="1112"><route edges="EdgeN2 EdgeE1"/></vehicle>
	<vehicle id="167" depart="1118"><route edges="EdgeW2 EdgeN1"/></vehicle>
	<vehicle id="168" depart="1122"><route edges="EdgeN2 EdgeW1"/></vehicle>
	<vehicle id="169" depart="1128"><route edges="EdgeN2 EdgeS1"/></vehicle>
	<vehicle id="170" depart="1135"><route edges="EdgeN2 EdgeE1"/></vehicle>
	<vehicle id="171" depart="1152"><route edges="EdgeW2 EdgeN1"/></vehicle>
	<vehicle id="172" depart="1159"><route edges="EdgeS2 EdgeW1"/></vehicle>
	<vehicle id="173" depart="1160"><route edges="EdgeW2 EdgeN1"/></vehicle>
	<vehicle id="174" depart="1161"><route edges="EdgeW2 EdgeE1"/></vehicle>
	<vehicle id="175" depart="1174"><route edges="EdgeN2 EdgeS1"/></vehicle>
	<vehicle id="176" depart="1176"><route edges="EdgeE2 EdgeW1"/></vehicle>
	<vehicle id="177" depart="1177"><route edges="EdgeN2 EdgeS1"/></vehicle>
	<vehicle id="178" depart="1180"><route edges="EdgeN2 EdgeW1"/></vehicle>
	<vehicle id="179" depart="1190"><route edges="EdgeS2 EdgeW1"/></vehicle>
	<vehicle id="180" depart="1191"><route edges="EdgeE2 EdgeS1"/></vehicle>
	<vehicle id="181" depart="1197"><route edges="EdgeS2 EdgeE1"/></vehicle>
	<vehicle id="182" depart="1199"><route edges="EdgeN2 EdgeW1"/></vehicle>
	<vehicle id="183" depart="1203"><route edges="EdgeN2 EdgeS1"/></vehicle>
	<vehicle id="184" depart="1210"><route edges="EdgeW2 EdgeE1"/></vehicle>
	<vehicle id="185" depart="1213"><route edges="EdgeW2 EdgeS1"/></vehicle>
	<vehicle id="186" depart="1224"><route edges="EdgeN2 EdgeE1"/></vehicle>
	<vehicle id="187" depart="1226"><route edges="EdgeN2 EdgeS1"/></vehicle>
	<vehicle id="188" depart="1239"><route edges="EdgeN2 EdgeW1"/></vehicle>
	<vehicle id="189" depart="1240"><route edges="EdgeE2 EdgeW1"/></vehicle>
	<vehicle id="190" depart="1241"><route edges="EdgeW2 EdgeN1"/></vehicle>
	<vehicle id="191" depart="1244"><route edges="EdgeN2 EdgeW1"/></vehicle>
	<vehicle id="192" depart="1244"><route edges="EdgeN2 EdgeE1"/></vehicle>
	<vehicle id="193" depart="1245"><route edges="EdgeS2 EdgeW1"/></vehicle>
	<vehicle id="194" depart="1249"><route edges="EdgeW2 EdgeN1"/></vehicle>
	<vehicle id="195" depart="1253"><route edges="EdgeN2 EdgeS1"/></vehicle>
	<vehicle id="196" depart="1254"><route edges="EdgeW2 EdgeS1"/></vehicle>
	<vehicle id="197" depart="1261"><route edges="EdgeW2 EdgeS1"/></vehicle>
	<vehicle id="198" depart="1263"><route edges="EdgeN2 EdgeW1"/></vehicle>
	<vehicle id="199" depart="1265"><route edges="EdgeE2 EdgeN1"/></vehicle>
	<vehicle id="200" depart="1268"><route edges="EdgeW2 EdgeE1"/></vehicle>
	<vehicle id="201" depart="1273"><route edges="EdgeW2 EdgeS1"/></vehicle>
	<vehicle id="202" depart="1282"><route edges="EdgeS2 EdgeN1"/></vehicle>
	<vehicle id="203" depart="1283"><route edges="EdgeS2 EdgeW1"/></vehicle>
	<vehicle id="204" depart="1289"><route edges="EdgeW2 EdgeE1"/></vehicle>
	<vehicle id="205" depart="1307"><route edges="EdgeE2 EdgeN1"/></vehicle>
	<vehicle id="206" depart="1324"><route edges="EdgeS2 EdgeW1"/></vehicle>
	<vehicle id="207" depart="1329"><route edges="EdgeW2 EdgeS1"/></vehicle>
	<vehicle id="208" depart="1335"><route edges="EdgeE2 EdgeW1"/></vehicle>
	<vehicle id="209" depart="1338"><route edges="EdgeN2 EdgeW1"/></vehicle>
	<vehicle id="210" depart="1339"><route edges="EdgeS2 EdgeW1"/></vehicle>
	<vehicle id="211" depart="1341"><route edges="EdgeE2 EdgeW1"/></vehicle>
	<vehicle id="212" depart="1342"><route edges="EdgeW2 EdgeS1"/></vehicle>
	<vehicle id="213" depart="1351"><route edges="EdgeW2 EdgeN1"/></vehicle>
	<vehicle id="214" depart="1361"><route edges="EdgeW2 EdgeS1"/></vehicle>
	<vehicle id="215" depart="1368"><route edges="EdgeS2 EdgeW1"/></vehicle>
	<vehicle id="216" depart="1368"><route edges="EdgeW2 EdgeE1"/></vehicle>
	<vehicle id="217" depart="1369"><route edges="EdgeN2 EdgeW1"/></vehicle>
	<vehicle id="218" depart="1380"><route edges="EdgeE2 EdgeN1"/></vehicle>
	<vehicle id="219" depart="1385"><route edges="EdgeE2 EdgeW1"/></vehicle>
	<vehicle id="220" depart="1385"><route edges="EdgeS2 EdgeW1"/></vehicle>
	<vehicle id="221" depart="1386"><route edges="EdgeE2 EdgeW1"/></vehicle>
	<vehicle id="222" depart="1387"><route edges="EdgeE2 EdgeS1"/></vehicle>
	<vehicle id="223" depart="1387"><route edges="EdgeE2 EdgeN1"/></vehicle>
	<vehicle id="224" depart="1393"><route edges="EdgeW2 EdgeE1"/></vehicle>
	<vehicle id="225" depart="1393"><route edges="EdgeS2 EdgeE1"/></vehicle>
	<vehicle id="226" depart="1393"><route edges="EdgeE2 EdgeN1"/></vehicle>
	<vehicle id="227" depart="1395"><route edges="EdgeS2 EdgeW1"/></vehicle>
	<vehicle id="228" depart="1396"><route edges="EdgeN2 EdgeS1"/></vehicle>
	<vehicle id="229" depart="1402"><route edges="EdgeS2 EdgeW1"/></vehicle>
	<vehicle id="230" depart="1403"><route edges="EdgeN2 EdgeS1"/></vehicle>
	<vehicle id="231" depart="1408"><route edges="EdgeW2 EdgeE1"/></vehicle>
	<vehicle id="232" depart="1410"><route edges="EdgeS2 EdgeN1"/></vehicle>
	<vehicle id="233" depart="1411"><route edges="EdgeE2 EdgeW1"/></vehicle>
	<vehicle id="234" depart="1426"><route edges="EdgeS2 EdgeN1"/></vehicle>
	<vehicle id="235" depart="1426"><route edges="EdgeW2 EdgeE1"/></vehicle>
	<vehicle id="236" depart="1431"><route edges="EdgeN2 EdgeE1"/></vehicle>
	<vehicle id="237" depart="1433"><route edges="EdgeW2 EdgeE1"/></vehicle>
	<vehicle id="238" depart="1437"><route edges="EdgeW2 EdgeN1"/></vehicle>
	<vehicle id="239" depart="1459"><route edges="EdgeN2 EdgeE1"/></vehicle>
	<vehicle id="240" depart="1461"><route edges="EdgeW2 EdgeE1"/></vehicle>
	<vehicle id="241" depart="1470"><route edges="EdgeE2 EdgeS1"/></vehicle>
	<vehicle id="242" depart="1470"><route edges="EdgeE2 EdgeW1"/></vehicle>
	<vehicle id="243" depart="1471"><route edges="EdgeE2 EdgeS1"/></vehicle>
	<vehicle id="244" depart="1471"><route edges="EdgeN2 EdgeS1"/></vehicle>
	<vehicle id="245" depart="1476"><route edges="EdgeW2 EdgeN1"/></vehicle>
	<vehicle id="246" depart="1479"><route edges="EdgeE2 EdgeW1"/></vehicle>
	<vehicle id="247" depart="1489"><route edges="EdgeE2 EdgeN1"/></vehicle>
	<vehicle id="248" depart="1491"><route edges="EdgeW2 EdgeN1"/></vehicle>
	<vehicle id="249" depart="1499"><route edges="EdgeN2 EdgeE1"/></vehicle>
	<vehicle id="250" depart="1507"><route edges="EdgeW2 EdgeN1"/></vehicle>
	<vehicle id="251" depart="1510"><route edges="EdgeE2 EdgeS1"/></vehicle>
	<vehicle id="252" depart="1513"><route edges="EdgeW2 EdgeE1"/></vehicle>
	<vehicle id="253" depart="1515"><route edges="EdgeS2 EdgeN1"/></vehicle>
	<vehicle id="254" depart="1518"><route edges="EdgeS2 EdgeW1"/></vehicle>
	<vehicle id="255" depart="1519"><route edges="EdgeW2 EdgeE1"/></vehicle>
	<vehicle id="256" depart="1521"><route edges="EdgeW2 EdgeN1"/></vehicle>
	<vehicle id="257" depart="1524"><route edges="EdgeS2 EdgeW1"/></vehicle>
	<vehicle id="258" depart="1533"><route edges="EdgeS2 EdgeN1"/></vehicle>
	<vehicle id="259" depart="1539"><route edges="EdgeN2 EdgeE1"/></vehicle>
	<vehicle id="260" depart="1541"><route edges="EdgeW2 EdgeE1"/></vehicle>
	<vehicle id="261" depart="1543"><route edges="EdgeN2 EdgeS1"/></vehicle>
	<vehicle id="262" depart="1551"><route edges="EdgeE2 EdgeW1"/></vehicle>
	<vehicle id="263" depart="1553"><route edges="EdgeW2 EdgeE1"/></vehicle>
	<vehicle id="264" depart="1555"><route edges="EdgeS2 EdgeE1"/></vehicle>
	<vehicle id="265" depart="1556"><route edges="EdgeS2 EdgeE1"/></vehicle>
	<vehicle id="266" depart="1564"><route edges="EdgeS2 EdgeE1"/></vehicle>
	<vehicle id="267" depart="1573"><route edges="EdgeE2 EdgeW1"/></vehicle>
	<vehicle id="268" depart="1579"><route edges="EdgeN2 EdgeE1"/></vehicle>
	<vehicle id="269" depart="1584"><route edges="EdgeS2 EdgeW1"/></vehicle>
	<vehicle id="270" depart="1588"><route edges="EdgeN2 EdgeW1"/></vehicle>
	<vehicle id="271" depart="1597"><route edges="EdgeS2 EdgeN1"/></vehicle>
	<vehicle id="272" depart="1613"><route edges="EdgeE2 EdgeS1"/></vehicle>
	<vehicle id="273" depart="1616"><route edges="EdgeS2 EdgeW1"/></vehicle>
	<vehicle id="274" depart="1626"><route edges="EdgeE2 EdgeS1"/></vehicle>
	<vehicle id="275" depart="1627"><route edges="EdgeW2 EdgeS1"/></vehicle>
	<vehicle id="276" depart="1630"><route edges="EdgeE2 EdgeW1"/></vehicle>
	<vehicle id="277" depart="1638"><route edges="EdgeS2 EdgeE1"/></vehicle>
	<vehicle id="278" depart="1640"><route edges="EdgeN2 EdgeS1"/></vehicle>
	<vehicle id="279" depart="1640"><route edges="EdgeW2 EdgeN1"/></vehicle>
	<vehicle id="280" depart="1645"><route edges="EdgeN2 EdgeS1"/></vehicle>
	<vehicle id="281" depart="1652"><route edges="EdgeN2 EdgeS1"/></vehicle>
	<vehicle id="282" depart="1653"><route edges="EdgeW2 EdgeE1"/></vehicle>
	<vehicle id="283" depart="1654"><route edges="EdgeE2 EdgeW1"/></vehicle>
	<vehicle id="284" depart="1663"><route edges="EdgeW2 EdgeE1"/></vehicle>
	<vehicle id="285" depart="1665"><route edges="EdgeS2 EdgeN1"/></vehicle>
	<vehicle id="286" depart="1666"><route edges="EdgeW2 EdgeS1"/></vehicle>
	<vehicle id="287" depart="1668"><route edges="EdgeW2 EdgeS1"/></vehicle>
	<vehicle id="288" depart="1668"><route edges="EdgeE2 EdgeW1"/></vehicle>
	<vehicle id="289" depart="1679"><route edges="EdgeE2 EdgeS1"/></vehicle>
	<vehicle id="290" depart="1686"><route edges="EdgeE2 EdgeS1"/></vehicle>
	<vehicle id="291" depart="1688"><route edges="EdgeE2 EdgeW1"/></vehicle>
	<vehicle id="292" depart="1693"><route edges="EdgeW2 EdgeE1"/></vehicle>
	<vehicle id="293" depart="1717"><route edges="EdgeS2 EdgeE1"/></vehicle>
	<vehicle id="294" depart="1718"><route edges="EdgeS2 EdgeN1"/></vehicle>
	<vehicle id="295" depart="1720"><route edges="EdgeN2 EdgeW1"/></vehicle>
	<vehicle id="296" depart="1721"><route edges="EdgeW2 EdgeN1"/></vehicle>
	<vehicle id="297" depart="1722"><route edges="EdgeN2 EdgeW1"/></vehicle>
	<vehicle id="298" depart="1725"><route edges="EdgeS2 EdgeN1"/></vehicle>
	<vehicle id="299" depart="1738"><route edges="EdgeN2 EdgeS1"/></vehicle>
	<vehicle id="300" depart="1740"><route edges="EdgeE2 EdgeW1"/></vehicle>
	<vehicle id="301" depart="1742"><route edges="EdgeS2 EdgeE1"/></vehicle>
	<vehicle id="302" depart="1744"><route edges="EdgeN2 EdgeS1"/></vehicle>
	<vehicle id="303" depart="1749"><route edges="EdgeN2 EdgeS1"/></vehicle>
	<vehicle id="304" depart="1752"><route edges="EdgeS2 EdgeW1"/></vehicle>
	<vehicle id="305" depart="1753"><route edges="EdgeS2 EdgeW1"/></vehicle>
	<vehicle id="306" depart="1755"><route edges="EdgeE2 EdgeW1"/></vehicle>
	<vehicle id="307" depart="1758"><route edges="EdgeS2 EdgeW1"/></vehicle>
	<vehicle id="308" depart="1759"><route edges="EdgeS2 EdgeW1"/></vehicle>
	<vehicle id="309" depart="1766"><route edges="EdgeE2 EdgeW1"/></vehicle>
	<vehicle id="310" depart="1767"><route edges="EdgeS2 EdgeN1"/></vehicle>
	<vehicle id="311" depart="1770"><route edges="EdgeN2 EdgeS1"/></vehicle>
	<vehicle id="312" depart="1778"><route edges="EdgeN2 EdgeS1"/></vehicle>
	<vehicle id="313" depart="1782"><route edges="EdgeE2 EdgeN1"/></vehicle>
	<vehicle id="314" depart="1783"><route edges="EdgeS2 EdgeE1"/></vehicle>
	<vehicle id="315" depart="1786"><route edges="EdgeE2 EdgeS1"/></vehicle>
	<vehicle id="316" depart="1787"><route edges="EdgeW2 EdgeS1"/></vehicle>
	<vehicle id="317" depart="1790"><route edges="EdgeN2 EdgeS1"/></vehicle>
	<vehicle id="318" depart="1792"><route edges="EdgeN2 EdgeE1"/></vehicle>
	<vehicle id="319" depart="1792"><route edges="EdgeW2 EdgeS1"/></vehicle>
	<vehicle id="320" depart="1793"><route edges="EdgeE2 EdgeW1"/></vehicle>
	<vehicle id="321" depart="1794"><route edges="EdgeS2 EdgeW1"/></vehicle>
	<vehicle id="322" depart="1794"><route edges="EdgeN2 EdgeS1"/></vehicle>
	<vehicle id="323" depart="1794"><route edges="EdgeS2 EdgeN1"/></vehicle>
	<vehicle id="324" depart="1806"><route edges="EdgeW2 EdgeS1"/></vehicle>
	<vehicle id="325" depart="1808"><route edges="EdgeE2 EdgeW1"/></vehicle>
	<vehicle id="326" depart="1816"><route edges="EdgeE2 EdgeN1"/></vehicle>
	<vehicle id="327" depart="1818"><route edges="EdgeS2 EdgeW1"/></vehicle>
	<vehicle id="328" depart="1828"><route edges="EdgeS2 EdgeE1"/></vehicle>
	<vehicle id="329" depart="1833"><route edges="EdgeE2 EdgeN1"/></vehicle>
	<vehicle id="330" depart="1836"><route edges="EdgeE2 EdgeN1"/></vehicle>
	<vehicle id="331" depart="1839"><route edges="EdgeE2 EdgeS1"/></vehicle>
	<vehicle id="332" depart="1841"><route edges="EdgeE2 EdgeN1"/></vehicle>
	<vehicle id="333" depart="1851"><route edges="EdgeE2 EdgeS1"/></vehicle>
	<vehicle id="334" depart="1860"><route edges="EdgeE2 EdgeW1"/></vehicle>
	<vehicle id="335" depart="1861"><route edges="EdgeE2 EdgeW1"/></vehicle>
	<vehicle id="336" depart="1863"><route edges="EdgeE2 EdgeN1"/></vehicle>
	<vehicle id="337" depart="1866"><route edges="EdgeN2 EdgeE1"/></vehicle>
	<vehicle id="338" depart="1867"><route edges="EdgeN2 EdgeW1"/></vehicle>
	<vehicle id="339" depart="1873"><route edges="EdgeE2 EdgeW1"/></vehicle>
	<vehicle id="340" depart="1876"><route edges="EdgeN2 EdgeE1"/></vehicle>
	<vehicle id="341" depart="1882"><route edges="EdgeE2 EdgeS1"/></vehicle>
	<vehicle id="342" depart="1888"><route edges="EdgeS2 EdgeW1"/></vehicle>
	<vehicle id="343" depart="1889"><route edges="EdgeS2 EdgeN1"/></vehicle>
	<vehicle id="344" depart="1890"><route edges="EdgeN2 EdgeS1"/></vehicle>
	<vehicle id="345" depart="1894"><route edges="EdgeW2 EdgeN1"/></vehicle>
	<vehicle id="346" depart="1894"><route edges="EdgeW2 EdgeS1"/></vehicle>
	<vehicle id="347" depart="1897"><route edges="EdgeN2 EdgeW1"/></vehicle>
	<vehicle id="348" depart="1898"><route edges="EdgeN2 EdgeE1"/></vehicle>
	<vehicle id="349" depart="1898"><route edges="EdgeN2 EdgeS1"/></vehicle>
	<vehicle id="350" depart="1910"><route edges="EdgeN2 EdgeS1"/></vehicle>
	<vehicle id="351" depart="1912"><route edges="EdgeE2 EdgeS1"/></vehicle>
	<vehicle id="352" depart="1913"><route edges="EdgeN2 EdgeE1"/></vehicle>
	<vehicle id="353" depart="1917"><route edges="EdgeW2 EdgeS1"/></vehicle>
	<vehicle id="354" depart="1920"><route edges="EdgeN2 EdgeW1"/></vehicle>
	<vehicle id="355" depart="1927"><route edges="EdgeE2 EdgeN1"/></vehicle>
	<vehicle id="356" depart="1929"><route edges="EdgeS2 EdgeE1"/></vehicle>
	<vehicle id="357" depart="1936"><route edges="EdgeN2 EdgeE1"/></vehicle>
	<vehicle id="358" depart="1937"><route edges="EdgeN2 EdgeW1"/></vehicle>
	<vehicle id="359" depart="1941"><route edges="EdgeE2 EdgeW1"/></vehicle>
	<vehicle id="360" depart="1948"><route edges="EdgeS2 EdgeN1"/></vehicle>
	<vehicle id="361" depart="1951"><route edges="EdgeE2 EdgeW1"/></vehicle>
	<vehicle id="362" depart="1952"><route edges="EdgeS2 EdgeE1"/></vehicle>
	<vehicle id="363" depart="1954"><route edges="EdgeE2 EdgeW1"/></vehicle>
	<vehicle id="364" depart="1970"><route edges="EdgeS2 EdgeW1"/></vehicle>
	<vehicle id="365" depart="1970"><route edges="EdgeW2 EdgeN1"/></vehicle>
	<vehicle id="366" depart="1972"><route edges="EdgeS2 EdgeN1"/></vehicle>
	<vehicle id="367" depart="1978"><route edges="EdgeW2 EdgeE1"/></vehicle>
	<vehicle id="368" depart="1981"><route edges="EdgeW2 EdgeS1"/></vehicle>
	<vehicle id="369" depart="1982"><route edges="EdgeS2 EdgeE1"/></vehicle>
	<vehicle id="370" depart="1990"><route edges="EdgeE2 EdgeW1"/></vehicle>
	<vehicle id="371" depart="1997"><route edges="EdgeW2 EdgeE1"/></vehicle>
	<vehicle id="372" depart="2002"><route edges="EdgeS2 EdgeW1"/></vehicle>
	<vehicle id="373" depart="2003"><route edges="EdgeN2 EdgeW1"/></vehicle>
	<vehicle id="374" depart="2003"><route edges="EdgeN2 EdgeW1"/></vehicle>
	<vehicle id="375" depart="2010"><route edges="EdgeE2 EdgeN1"/></vehicle>
	<vehicle id="376" depart="2012"><route edges="EdgeN2 EdgeS1"/></vehicle>
	<vehicle id="377" depart="2013"><route edges="EdgeE2 EdgeW1"/></vehicle>
	<vehicle id="378" depart="2015"><route edges="EdgeS2 EdgeN1"/></vehicle>
	<vehicle id="379" depart="2016"><route edges="EdgeW2 EdgeE1"/></vehicle>
	<vehicle id="380" depart="2027"><route edges="EdgeW2 EdgeE1"/></vehicle>
	<vehicle id="381" depart="2032"><route edges="EdgeE2 EdgeN1"/></vehicle>
	<vehicle id="382" depart="2048"><route edges="EdgeN2 EdgeW1"/></vehicle>
	<vehicle id="383" depart="2049"><route edges="EdgeE2 EdgeW1"/></vehicle>
	<vehicle id="384" depart="2051"><route edges="EdgeE2 EdgeW1"/></vehicle>
	<vehicle id="385" depart="2052"><route edges="EdgeN2 EdgeS1"/></vehicle>
	<vehicle id="386" depart="2055"><route edges="EdgeE2 EdgeS1"/></vehicle>
	<vehicle id="387" depart="2055"><route edges="EdgeN2 EdgeW1"/></vehicle>
	<vehicle id="388" depart="2056"><route edges="EdgeS2 EdgeN1"/></vehicle>
	<vehicle id="389" depart="2064"><route edges="EdgeE2 EdgeW1"/></vehicle>
	<vehicle id="390" depart="2070"><route edges="EdgeS2 EdgeN1"/></vehicle>
	<vehicle id="391" depart="2074"><route edges="EdgeW2 EdgeN1"/></vehicle>
	<vehicle id="392" depart="2076"><route edges="EdgeE2 EdgeW1"/></vehicle>
	<vehicle id="393" depart="2080"><route edges="EdgeS2 EdgeW1"/></vehicle>
	<vehicle id="394" depart="2083"><route edges="EdgeS2 EdgeE1"/></vehicle>
	<vehicle id="395" depart="2089"><route edges="EdgeE2 EdgeN1"/></vehicle>
	<vehicle id="396" depart="2096"><route edges="EdgeW2 EdgeN1"/></vehicle>
	<vehicle id="397" depart="2102"><route edges="EdgeW2 EdgeS1"/></vehicle>
	<vehicle id="398" depart="2103"><route edges="EdgeN2 EdgeE1"/></vehicle>
	<vehicle id="399" depart="2105"><route edges="EdgeE2 EdgeN1"/></vehicle>
	<vehicle id="400" depart="2119"><route edges="EdgeE2 EdgeW1"/></vehicle>
	<vehicle id="401" depart="2125"><route edges="EdgeS2 EdgeW1"/></vehicle>
	<vehicle id="402" depart="2144"><route edges="EdgeE2 EdgeS1"/></vehicle>
	<vehicle id="403" depart="2150"><route edges="EdgeE2 EdgeW1"/></vehicle>
	<vehicle id="404" depart="2151"><route edges="EdgeW2 EdgeE1"/></vehicle>
	<vehicle id="405" depart="2155"><route edges="EdgeW2 EdgeN1"/></vehicle>