<?xml version="1.0" encoding="UTF-8"?>
<routes xmlns:xsi="http://www.w3.org/2001/XMLSchema-instance" xsi:noNamespaceSchemaLocation="http://sumo.dlr.de/xsd/routes_file.xsd">
	<vehicle id="0" depart="1"><route edges="EdgeS2 EdgeE1"/></vehicle>
	<vehicle id="1" depart="10"><route edges="EdgeN2 EdgeS1"/></vehicle>
	<vehicle id="2" depart="13"><route edges="EdgeW2 EdgeE1"/></vehicle>
	<vehicle id="3" depart="14"><route edges="EdgeW2 EdgeE1"/></vehicle>
	<vehicle id="4" depart="19"><route edges="EdgeE2 EdgeN1"/></vehicle>
	<vehicle id="5" depart="31"><route edges="EdgeW2 EdgeN1"/></vehicle>
	<vehicle id="6" depart="33"><route edges="EdgeS2 EdgeE1"/></vehicle>
	<vehicle id="7" depart="60"><route edges="EdgeE2 EdgeW1"/></vehicle>
	<vehicle id="8" depart="79"><route edges="EdgeE2 EdgeS1"/></vehicle>
	<vehicle id="9" depart="96"><route edges="EdgeS2 EdgeW1"/></vehicle>
	<vehicle id="10" depart="99"><route edges="EdgeE2 EdgeW1"/></vehicle>
	<vehicle id="11" depart="102"><route edges="EdgeE2 EdgeW1"/></vehicle>
	<vehicle id="12" depart="110"><route edges="EdgeS2 EdgeN1"/></vehicle>
	<vehicle id="13" depart="111"><route edges="EdgeN2 EdgeS1"/></vehicle>
	<vehicle id="14" depart="123"><route edges="EdgeW2 EdgeE1"/></vehicle>
	<vehicle id="15" depart="125"><route edges="EdgeW2 EdgeS1"/></vehicle>
	<vehicle id="16" depart="127"><route edges="EdgeS2 EdgeW1"/></vehicle>
	<vehicle id="17" depart="151"><route edges="EdgeW2 EdgeE1"/></vehicle>
	<vehicle id="18" depart="152"><route edges="EdgeS2 EdgeE1"/></vehicle>
	<vehicle id="19" depart="176"><route edges="EdgeN2 EdgeS1"/></vehicle>
	<vehicle id="20" depart="179"><route edges="EdgeW2 EdgeE1"/></vehicle>
	<vehicle id="21" depart="179"><route edges="EdgeE2 EdgeW1"/></vehicle>
	<vehicle id="22" depart="190"><route edges="EdgeW2 EdgeN1"/></vehicle>
	<vehicle id="23" depart="191"><route edges="EdgeW2 EdgeE1"/></vehicle>
	<vehicle id="24" depart="198"><route edges="EdgeN2 EdgeW1"/></vehicle>
	<vehicle id="25" depart="205"><route edges="EdgeW2 EdgeN1"/></vehicle>
	<vehicle id="26" depart="207"><route edges="EdgeS2 EdgeE1"/></vehicle>
	<vehicle id="27" depart="213"><route edges="EdgeN2 EdgeS1"/></vehicle>
	<vehicle id="28" depart="213"><route edges="EdgeS2 EdgeW1"/></vehicle>
	<vehicle id="29" depart="217"><route edges="EdgeN2 EdgeW1"/></vehicle>
	<vehicle id="30" depart="236"><route edges="EdgeN2 EdgeE1"/></vehicle>
	<vehicle id="31" depart="240"><route edges="EdgeW2 EdgeS1"/></vehicle>
	<vehicle id="32" depart="240"><route edges="EdgeN2 EdgeE1"/></vehicle>
	<vehicle id="33" depart="242"><route edges="EdgeN2 EdgeW1"/></vehicle>
	<vehicle id="34" depart="255"><route edges="EdgeN2 EdgeE1"/></vehicle>
	<vehicle id="35" depart="268"><route edges="EdgeS2 EdgeN1"/></vehicle>
	<vehicle id="36" depart="286"><route edges="EdgeW2 EdgeE1"/></vehicle>
	<vehicle id="37" depart="290"><route edges="EdgeN2 EdgeE1"/></vehicle>
	<vehicle id="38" depart="290"><route edges="EdgeN2 EdgeE1"/></vehicle>
	<vehicle id="39" depart="296"><route edges="EdgeN2 EdgeW1"/></vehicle>
	<vehicle id="40" depart="304"><route edges="EdgeW2 EdgeE1"/></vehicle>
	<vehicle id="41" depart="309"><route edges="EdgeN2 EdgeW1"/></vehicle>
	<vehicle id="42" depart="309"><route edges="EdgeW2 EdgeE1"/></vehicle>
	<vehicle id="43" depart="310"><route edges="EdgeS2 EdgeE1"/></vehicle>
	<vehicle id="44" depart="311"><route edges="EdgeE2 EdgeS1"/></vehicle>
	<vehicle id="45" depart="319"><route edges="EdgeN2 EdgeE1"/></vehicle>
	<vehicle id="46" depart="324"><route edges="EdgeE2 EdgeW1"/></vehicle>
	<vehicle id="47" depart="332"><route edges="EdgeE2 EdgeN1"/></vehicle>
	<vehicle id="48" depart="351"><route edges="EdgeS2 EdgeE1"/></vehicle>
	<vehicle id="49" depart="353"><route edges="EdgeS2 EdgeE1"/></vehicle>
	<vehicle id="50" depart="357"><route edges="EdgeW2 EdgeE1"/></vehicle>
	<vehicle id="51" depart="358"><route edges="EdgeW2 EdgeS1"/></vehicle>
	<vehicle id="52" depart="370"><route edges="EdgeN2 EdgeE1"/></vehicle>
	<vehicle id="53" depart="388"><route edges="EdgeN2 EdgeW1"/></vehicle>
	<vehicle id="54" depart="391"><route edges="EdgeW2 EdgeN1"/></vehicle>
	<vehicle id="55" depart="397"><route edges="EdgeW2 EdgeN1"/></vehicle>
	<vehicle id="56" depart="413"><route edges="EdgeS2 EdgeW1"/></vehicle>
	<vehicle id="57" depart="421"><route edges="EdgeS2 EdgeN1"/></vehicle>
	<vehicle id="58" depart="422"><route edges="EdgeE2 EdgeW1"/></vehicle>
	<vehicle id="59" depart="428"><route edges="EdgeN2 EdgeE1"/></vehicle>
	<vehicle id="60" depart="432"><route edges="EdgeE2 EdgeW1"/></vehicle>
	<vehicle id="61" depart="437"><route edges="EdgeN2 EdgeW1"/></vehicle>
	<vehicle id="62" depart="452"><route edges="EdgeE2 EdgeN1"/></vehicle>
	<vehicle id="63" depart="477"><route edges="EdgeW2 EdgeN1"/></vehicle>
	<vehicle id="64" depart="479"><route edges="EdgeE2 EdgeN1"/></vehicle>
	<vehicle id="65" depart="480"><route edges="EdgeS2 EdgeE1"/></vehicle>
	<vehicle id="66" depart="486"><route edges="EdgeE2 EdgeS1"/></vehicle>
	<vehicle id="67" depart="489"><route edges="EdgeE2 EdgeN1"/></vehicle>
	<vehicle id="68" depart="491"><route edges="EdgeS2 EdgeN1"/></vehicle>
	<vehicle id="69" depart="492"><route edges="EdgeN2 EdgeE1"/></vehicle>
	<vehicle id="70" depart="493"><route edges="EdgeN2 EdgeW1"/></vehicle>
	<vehicle id="71" depart="499"><route edges="EdgeE2 EdgeW1"/></vehicle>
	<vehicle id="72" depart="508"><route edges="EdgeW2 EdgeE1"/></vehicle>
	<vehicle id="73" depart="509"><route edges="EdgeS2 EdgeN1"/></vehicle>
	<vehicle id="74" depart="517"><route edges="EdgeS2 EdgeE1"/></vehicle>
	<vehicle id="75" depart="521"><route edges="EdgeN2 EdgeE1"/></vehicle>
	<vehicle id="76" depart="530"><route edges="EdgeE2 EdgeS1"/></vehicle>
	<vehicle id="77" depart="536"><route edges="EdgeN2 EdgeS1"/></vehicle>
	<vehicle id="78" depart="538"><route edges="EdgeW2 EdgeE1"/></vehicle>
	<vehicle id="79" depart="539"><route edges="EdgeN2 EdgeE1"/></vehicle>
	<vehicle id="80" depart="540"><route edges="EdgeS2 EdgeE1"/></vehicle>
	<vehicle id="81" depart="546"><route edges="EdgeS2 EdgeW1"/></vehicle>
	<vehicle id="82" depart="548"><route edges="EdgeS2 EdgeW1"/></vehicle>
	<vehicle id="83" depart="561"><route edges="EdgeW2 EdgeE1"/></vehicle>
	<vehicle id="84" depart="567"><route edges="EdgeN2 EdgeS1"/></vehicle>
	<vehicle id="85" depart="569"><route edges="EdgeS2 EdgeN1"/></vehicle>
	<vehicle id="86" depart="569"><route edges="EdgeW2 EdgeS1"/></vehicle>
	<vehicle id="87" depart="584"><route edges="EdgeS2 EdgeE1"/></vehicle>
	<vehicle id="88" depart="586"><route edges="EdgeW2 EdgeE1"/></vehicle>
	<vehicle id="89" depart="588"><route edges="EdgeW2 EdgeN1"/></vehicle>
	<vehicle id="90" depart="590"><route edges="EdgeE2 EdgeS1"/></vehicle>
	<vehicle id="91" depart="594"><route edges="EdgeE2 EdgeS1"/></vehicle>
	<vehicle id="92" depart="603"><route edges="EdgeW2 EdgeN1"/></vehicle>
	<vehicle id="93" depart="603"><route edges="EdgeN2 EdgeW1"/></vehicle>
	<vehicle id="94" depart="612"><route edges="EdgeN2 EdgeW1"/></vehicle>
	<vehicle id="95" depart="613"><route edges="EdgeW2 EdgeN1"/></vehicle>
	<vehicle id="96" depart="620"><route edges="EdgeW2 EdgeN1"/></vehicle>
	<vehicle id="97" depart="625"><route edges="EdgeE2 EdgeW1"/></vehicle>
	<vehicle id="98" depart="627"><route edges="EdgeS2 EdgeE1"/></vehicle>
	<vehicle id="99" depart="648"><route edges="EdgeW2 EdgeS1"/></vehicle>
	<vehicle id="100" depart="656"><route edges="EdgeE2 EdgeS1"/></vehicle>
	<vehicle id="101" depart="662"><route edges="EdgeW2 EdgeS1"/></vehicle>
	<vehicle id="102" depart="672"><route edges="EdgeE2 EdgeW1"/></vehicle>
	<vehicle id="103" depart="675"><route edges="EdgeS2 EdgeE1"/></vehicle>
	<vehicle id="104" depart="676"><route edges="EdgeS2 EdgeE1"/></vehicle>
	<vehicle id="105" depart="693"><route edges="EdgeW2 EdgeN1"/></vehicle>
	<vehicle id="106" depart="698"><route edges="EdgeS2 EdgeN1"/></vehicle>
	<vehicle id="107" depart="724"><route edges="EdgeN2 EdgeE1"/></vehicle>
	<vehicle id="108" depart="725"><route edges="EdgeN2 EdgeE1"/></vehicle>
	<vehicle id="109" depart="742"><route edges="EdgeW2 EdgeN1"/></vehicle>
	<vehicle id="110" depart="744"><route edges="EdgeN2 EdgeS1"/></vehicle>
	<vehicle id="111" depart="754"><route edges="EdgeW2 EdgeN1"/></vehicle>
	<vehicle id="112" depart="755"><route edges="EdgeW2 EdgeS1"/></vehicle>
	<vehicle id="113" depart="765"><route edges="EdgeE2 EdgeW1"/></vehicle>
	<vehicle id="114" depart="776"><route edges="EdgeE2 EdgeS1"/></vehicle>
	<vehicle id="115" depart="783"><route edges="EdgeS2 EdgeE1"/></vehicle>
	<vehicle id="116" depart="787"><route edges="EdgeS2 EdgeW1"/></vehicle>
	<vehicle id="117" depart="791"><route edges="EdgeS2 EdgeN1"/></vehicle>
	<vehicle id="118" depart="801"><route edges="EdgeE2 EdgeN1"/></vehicle>
	<vehicle id="119" depart="806"><route edges="EdgeW2 EdgeE1"/></vehicle>
	<vehicle id="120" depart="834"><route edges="EdgeN2 EdgeE1"/></vehicle>
	<vehicle id="121" depart="841"><route edges="EdgeE2 EdgeW1"/></vehicle>
	<vehicle id="122" depart="842"><route edges="EdgeN2 EdgeW1"/></vehicle>
	<vehicle id="123" depart="845"><route edges="EdgeS2 EdgeE1"/></vehicle>
	<vehicle id="124" depart="846"><route edges="EdgeN2 EdgeW1"/></vehicle>
	<vehicle id="125" depart="857"><route edges="EdgeW2 EdgeE1"/></vehicle>
	<vehicle id="126" depart="860"><route edges="EdgeW2 EdgeS1"/></vehicle>
	<vehicle id="127" depart="862"><route edges="EdgeN2 EdgeS1"/></vehicle>
	<vehicle id="128" depart="865"><route edges="EdgeN2 EdgeW1"/></vehicle>
	<vehicle id="129" depart="866"><route edges="EdgeS2 EdgeW1"/></vehicle>
	<vehicle id="130" depart="871"><route edges="EdgeN2 EdgeS1"/></vehicle>
	<vehicle id="131" depart="875"><route edges="EdgeS2 EdgeW1"/></vehicle>
	<vehicle id="132" depart="876"><route edges="EdgeE2 EdgeS1"/></vehicle>
	<vehicle id="133" depart="878"><route edges="EdgeS2 EdgeN1"/></vehicle>
	<vehicle id="134" depart="879"><route edges="EdgeW2 EdgeE1"/></vehicle>
	<vehicle id="135" depart="881"><route edges="EdgeS2 EdgeE1"/></vehicle>
	<vehicle id="136" depart="902"><route edges="EdgeE2 EdgeS1"/></vehicle>
	<vehicle id="137" depart="903"><route edges="EdgeW2 EdgeE1"/></vehicle>
	<vehicle id="138" depart="912"><route edges="EdgeE2 EdgeS1"/></vehicle>
	<vehicle id="139" depart="918"><route edges="EdgeE2 EdgeS1"/></vehicle>
	<vehicle id="140" depart="922"><route edges="EdgeN2 EdgeS1"/></vehicle>
	<vehicle id="141" depart="939"><route edges="EdgeE2 EdgeW1"/></vehicle>
	<vehicle id="142" depart="943"><route edges="EdgeE2 EdgeN1"/></vehicle>
	<vehicle id="143" depart="946"><route edges="EdgeS2 EdgeW1"/></vehicle>
	<vehicle id="144" depart="948"><route edges="EdgeW2 EdgeN1"/></vehicle>
	<vehicle id="145" depart="949"><route edges="EdgeE2 EdgeN1"/></vehicle>
	<vehicle id="146" depart="950"><route edges="EdgeN2 EdgeS1"/></vehicle>
	<vehicle id="147" depart="951"><route edges="EdgeW2 EdgeS1"/></vehicle>
	<vehicle id="148" depart="958"><route edges="EdgeS2 EdgeN1"/></vehicle>
	<vehicle id="149" depart="959"><route edges="EdgeW2 EdgeN1"/></vehicle>
	<vehicle id="150" depart="964"><route edges="EdgeS2 EdgeN1"/></vehicle>
	<vehicle id="151" depart="965"><route edges="EdgeW2 EdgeE1"/></vehicle>
	<vehicle id="152" depart="974"><route edges="EdgeE2 EdgeS1"/></vehicle>
	<vehicle id="153" depart="975"><route edges="EdgeN2 EdgeW1"/></vehicle>
	<vehicle id="154" depart="976"><route edges="EdgeE2 EdgeS1"/></vehicle>
	<vehicle id="155" depart="1000"><route edges="EdgeE2 EdgeN1"/></vehicle>
	<vehicle id="156" depart="1013"><route edges="EdgeS2 EdgeE1"/></vehicle>
	<vehicle id="157" depart="1020"><route edges="EdgeW2 EdgeS1"/></vehicle>
	<vehicle id="158" depart="1020"><route edges="EdgeW2 EdgeS1"/></vehicle>
	<vehicle id="159" depart="1022"><route edges="EdgeE2 EdgeS1"/></vehicle>
	<vehicle id="160" depart="1023"><route edges="EdgeE2 EdgeW1"/></vehicle>
	<vehicle id="161" depart="1024"><route edges="EdgeE2 EdgeW1"/></vehicle>
	<vehicle id="162" depart="1026"><route edges="EdgeW2 EdgeN1"/></vehicle>
	<vehicle id="163" depart="1026"><route edges="EdgeS2 EdgeN1"/></vehicle>
	<vehicle id="164" depart="1028"><route edges="EdgeE2 EdgeN1"/></vehicle>
	<vehicle id="165" depart="1029"><route edges="EdgeS2 EdgeE1"/></vehicle>
	<vehicle id="166" depart="1032"><route edges="EdgeN2 EdgeE1"/></vehicle>
	<vehicle id="167" depart="1033"><route edges="EdgeN2 EdgeE1"/></vehicle>
	<vehicle id="168" depart="1041"><route edges="EdgeN2 EdgeS1"/></vehicle>
	<vehicle id="169" depart="1041"><route edges="EdgeS2 EdgeW1"/></vehicle>
	<vehicle id="170" depart="1042"><route edges="EdgeS2 EdgeE1"/></vehicle>
	<vehicle id="171" depart="1043"><route edges="EdgeE2 EdgeN1"/></vehicle>
	<vehicle id="172" depart="1047"><route edges="EdgeN2 EdgeS1"/></vehicle>
	<vehicle id="173" depart="1050"><route edges="EdgeE2 EdgeN1"/></vehicle>
	<vehicle id="174" depart="1051"><route edges="EdgeE2 EdgeW1"/></vehicle>
	<vehicle id="175" depart="1055"><route edges="EdgeE2 EdgeN1"/></vehicle>
	<vehicle id="176" depart="1058"><route edges="EdgeS2 EdgeN1"/></vehicle>
	<vehicle id="177" depart="1065"><route edges="EdgeE2 EdgeS1"/></vehicle>
	<vehicle id="178" depart="1080"><route edges="EdgeE2 EdgeS1"/></vehicle>
	<vehicle id="179" depart="1086"><route edges="EdgeE2 EdgeS1"/></vehicle>
	<vehicle id="180" depart="1087"><route edges="EdgeN2 EdgeE1"/></vehicle>
	<vehicle id="181" depart="1098"><route edges="EdgeE2 EdgeW1"/></vehicle>
	<vehicle id="182" depart="1098"><route edges="EdgeS2 EdgeW1"/></vehicle>
	<vehicle id="183" depart="1105"><route edges="EdgeN2 EdgeS1"/></vehicle>
	<vehicle id="184" depart="1118"><route edges="EdgeE2 EdgeN1"/></vehicle>
	<vehicle id="185" depart="1137"><route edges="EdgeN2 EdgeW1"/></vehicle>
	<vehicle id="186" depart="1141"><route edges="EdgeS2 EdgeW1"/></vehicle>
	<vehicle id="187" depart="1170"><route edges="EdgeE2 EdgeW1"/></vehicle>
	<vehicle id="188" depart="1184"><route edges="EdgeE2 EdgeW1"/></vehicle>
	<vehicle id="189" depart="1188"><route edges="EdgeW2 EdgeS1"/></vehicle>
	<vehicle id="190" depart="1194"><route edges="EdgeS2 EdgeE1"/></vehicle>
	<vehicle id="191" depart="1196"><route edges="EdgeN2 EdgeE1"/></vehicle>
	<vehicle id="192" depart="1199"><route edges="EdgeE2 EdgeW1"/></vehicle>
	<vehicle id="193" depart="1200"><route edges="EdgeS2 EdgeW1"/></vehicle>
	<vehicle id="194" depart="1202"><route edges="EdgeS2 EdgeN1"/></vehicle>
	<vehicle id="195" depart="1206"><route edges="EdgeN2 EdgeE1"/></vehicle>
	<vehicle id="196" depart="1214"><route edges="EdgeE2 EdgeS1"/></vehicle>
	<vehicle id="197" depart="1214"><route edges="EdgeS2 EdgeW1"/></vehicle>
	<vehicle id="198" depart="1220"><route edges="EdgeS2 EdgeW1"/></vehicle>
	<vehicle id="199" depart="1222"><route edges="EdgeW2 EdgeN1"/></vehicle>
	<vehicle id="200" depart="1223"><route edges="EdgeE2 EdgeW1"/></vehicle>
	<vehicle id="201" depart="1227"><route edges="EdgeS2 EdgeE1"/></vehicle>
	<vehicle id="202" depart="1234"><route edges="EdgeW2 EdgeE1"/></vehicle>
	<vehicle id="203" depart="1241"><route edges="EdgeS2 EdgeE1"/></vehicle>
	<vehicle id="204" depart="1243"><route edges="EdgeE2 EdgeN1"/></vehicle>
	<vehicle id="205" depart="1246"><route edges="EdgeN2 EdgeE1"/></vehicle>
	<vehicle id="206" depart="1252"><route edges="EdgeN2 EdgeE1"/></vehicle>
	<vehicle id="207" depart="1273"><route edges="EdgeS2 EdgeW1"/></vehicle>
	<vehicle id="208" depart="1277"><route edges="EdgeS2 EdgeE1"/></vehicle>
	<vehicle id="209" depart="1281"><route edges="EdgeE2 EdgeW1"/></vehicle>
	<vehicle id="210" depart="1282"><route edges="EdgeE2 EdgeW1"/></vehicle>
	<vehicle id="211" depart="1282"><route edges="EdgeS2 EdgeW1"/></vehicle>
	<vehicle id="212" depart="1289"><route edges="EdgeW2 EdgeN1"/></vehicle>
	<vehicle id="213" depart="1291"><route edges="EdgeS2 EdgeE1"/></vehicle>
	<vehicle id="214" depart="1293"><route edges="EdgeE2 EdgeW1"/></vehicle>
	<vehicle id="215" depart="1294"><route edges="EdgeN2 EdgeS1"/></vehicle>
	<vehicle id="216" depart="1296"><route edges="EdgeW2 EdgeN1"/></vehicle>
	<vehicle id="217" depart="1299"><route edges="EdgeW2 EdgeN1"/></vehicle>
	<vehicle id="218" depart="1312"><route edges="EdgeN2 EdgeE1"/></vehicle>
	<vehicle id="219" depart="1321"><route edges="EdgeS2 EdgeW1"/></vehicle>
	<vehicle id="220" depart="1321"><route edges="EdgeW2 EdgeE1"/></vehicle>
	<vehicle id="221" depart="1322"><route edges="EdgeE2 EdgeW1"/></vehicle>
	<vehicle id="222" depart="1327"><route edges="EdgeE2 EdgeN1"/></vehicle>
	<vehicle id="223" depart="1329"><route edges="EdgeN2 EdgeS1"/></vehicle>
	<vehicle id="224" depart="1331"><route edges="EdgeS2 EdgeW1"/></vehicle>
	<vehicle id="225" depart="1332"><route edges="EdgeS2 EdgeN1"/></vehicle>
	<vehicle id="226" depart="1360"><route edges="EdgeW2 EdgeN1"/></vehicle>
	<vehicle id="227" depart="1362"><route edges="EdgeE2 EdgeS1"/></vehicle>
	<vehicle id="228" depart="1368"><route edges="EdgeW2 EdgeN1"/></vehicle>
	<vehicle id="229" depart="1373"><route edges="EdgeN2 EdgeW1"/></vehicle>
	<vehicle id="230" depart="1373"><route edges="EdgeN2 EdgeW1"/></vehicle>
	<vehicle id="231" depart="1373"><route edges="EdgeW2 EdgeE1"/></vehicle>
	<vehicle id="232" depart="1376"><route edges="EdgeW2 EdgeS1"/></vehicle>
	<vehicle id="233" depart="1386"><route edges="EdgeN2 EdgeS1"/></vehicle>
	<vehicle id="234" depart="1389"><route edges="EdgeW2 EdgeS1"/></vehicle>
	<vehicle id="235" depart="1397"><route edges="EdgeE2 EdgeN1"/></vehicle>
	<vehicle id="236" depart="1402"><route edges="EdgeS2 EdgeW1"/></vehicle>
	<vehicle id="237" depart="1410"><route edges="EdgeW2 EdgeE1"/></vehicle>
	<vehicle id="238" depart="1411"><route edges="EdgeN2 EdgeE1"/></vehicle>
	<vehicle id="239" depart="1419"><route edges="EdgeE2 EdgeW1"/></vehicle>
	<vehicle id="240" depart="1423"><route edges="EdgeS2 EdgeN1"/></vehicle>
	<vehicle id="241" depart="1425"><route edges="EdgeS2 EdgeW1"/></vehicle>
	<vehicle id="242" depart="1431"><route edges="EdgeW2 EdgeS1"/></vehicle>
	<vehicle id="243" depart="1433"><route edges="EdgeS2 EdgeN1"/></vehicle>
	<vehicle id="244" depart="1434"><route edges="EdgeW2 EdgeE1"/></vehicle>
	<vehicle id="245" depart="1436"><route edges="EdgeN2 EdgeS1"/></vehicle>
	<vehicle id="246" depart="1442"><route edges="EdgeS2 EdgeE1"/></vehicle>
	<vehicle id="247" depart="1450"><route edges="EdgeN2 EdgeW1"/></vehicle>
	<vehicle id="248" depart="1457"><route edges="EdgeN2 EdgeS1"/></vehicle>
	<vehicle id="249" depart="1459"><route edges="EdgeW2 EdgeN1"/></vehicle>
	<vehicle id="250" depart="1459"><route edges="EdgeN2 EdgeS1"/></vehicle>
	<vehicle id="251" depart="1463"><route edges="EdgeE2 EdgeS1"/></vehicle>
	<vehicle id="252" depart="1464"><route edges="EdgeW2 EdgeS1"/></vehicle>
	<vehicle id="253" depart="1468"><route edges="EdgeW2 EdgeE1"/></vehicle>
	<vehicle id="254" depart="1473"><route edges="EdgeE2 EdgeN1"/></vehicle>
	<vehicle id="255" depart="1477"><route edges="EdgeS2 EdgeW1"/></vehicle>
	<vehicle id="256" depart="1479"><route edges="EdgeS2 EdgeN1"/></vehicle>
	<vehicle id="257" depart="1491"><route edges="EdgeE2 EdgeW1"/></vehicle>
	<vehicle id="258" depart="1492"><route edges="EdgeN2 EdgeS1"/></vehicle>
	<vehicle id="259" depart="1502"><route edges="EdgeE2 EdgeW1"/></vehicle>
	<vehicle id="260" depart="1510"><route edges="EdgeN2 EdgeS1"/></vehicle>
	<vehicle id="261" depart="1515"><route edges="EdgeE2 EdgeS1"/></vehicle>
	<vehicle id="262" depart="1520"><route edges="EdgeS2 EdgeE1"/></vehicle>
	<vehicle id="263" depart="1526"><route edges="EdgeN2 EdgeS1"/></vehicle>
	<vehicle id="264" depart="1527"><route edges="EdgeN2 EdgeW1"/></vehicle>
	<vehicle id="265" depart="1546"><route edges="EdgeE2 EdgeW1"/></vehicle>
	<vehicle id="266" depart="1550"><route edges="EdgeW2 EdgeS1"/></vehicle>
	<vehicle id="267" depart="1553"><route edges="EdgeN2 EdgeE1"/></vehicle>
	<vehicle id="268" depart="1563"><route edges="EdgeW2 EdgeN1"/></vehicle>
	<vehicle id="269" depart="1571"><route edges="EdgeS2 EdgeE1"/></vehicle>
	<vehicle id="270" depart="1584"><route edges="EdgeE2 EdgeS1"/></vehicle>
	<vehicle id="271" depart="1587"><route edges="EdgeE2 EdgeN1"/></vehicle>
	<vehicle id="272" depart="1602"><route edges="EdgeE2 EdgeS1"/></vehicle>
	<vehicle id="273" depart="1609"><route edges="EdgeE2 EdgeN1"/></vehicle>
	<vehicle id="274" depart="1611"><route edges="EdgeS2 EdgeE1"/></vehicle>
	<vehicle id="275" depart="1625"><route edges="EdgeS2 EdgeE1"/></vehicle>
	<vehicle id="276" depart="1626"><route edges="EdgeW2 EdgeN1"/></vehicle>
	<vehicle id="277" depart="1629"><route edges="EdgeS2 EdgeE1"/></vehicle>
	<vehicle id="278" depart="1629"><route edges="EdgeN2 EdgeS1"/></vehicle>
	<vehicle id="279" depart="1630"><route edges="EdgeE2 EdgeN1"/></vehicle>
	<vehicle id="280" depart="1632"><route edges="EdgeW2 EdgeN1"/></vehicle>
	<vehicle id="281" depart="1637"><route edges="EdgeS2 EdgeW1"/></vehicle>
	<vehicle id="282" depart="1644"><route edges="EdgeN2 EdgeE1"/></vehicle>
	<vehicle id="283" depart="1646"><route edges="EdgeE2 EdgeS1"/></vehicle>
	<vehicle id="284" depart="1657"><route edges="EdgeW2 EdgeN1"/></vehicle>
	<vehicle id="285" depart="1659"><route edges="EdgeS2 EdgeW1"/></vehicle>
	<vehicle id="286" depart="1660"><route edges="EdgeE2 EdgeW1"/></vehicle>
	<vehicle id="287" depart="1662"><route edges="EdgeE2 EdgeS1"/></vehicle>
	<vehicle id="288" depart="1663"><route edges="EdgeW2 EdgeS1"/></vehicle>
	<vehicle id="289" depart="1664"><route edges="EdgeW2 EdgeE1"/></vehicle>
	<vehicle id="290" depart="1665"><route edges="EdgeN2 EdgeW1"/></vehicle>
	<vehicle id="291" depart="1677"><route edges="EdgeN2 EdgeW1"/></vehicle>
	<vehicle id="292" depart="1677"><route edges="EdgeS2 EdgeN1"/></vehicle>
	<vehicle id="293" depart="1686"><route edges="EdgeN2 EdgeE1"/></vehicle>
	<vehicle id="294" depart="1688"><route edges="EdgeN2 EdgeW1"/></vehicle>
	<vehicle id="295" depart="1691"><route edges="EdgeS2 EdgeW1"/></vehicle>
	<vehicle id="296" depart="1694"><route edges="EdgeS2 EdgeW1"/></vehicle>
	<vehicle id="297" depart="1718"><route edges="EdgeW2 EdgeN1"/></vehicle>
	<vehicle id="298" depart="1724"><route edges="EdgeN2 EdgeS1"/></vehicle>
	<vehicle id="299" depart="1726"><route edges="EdgeE2 EdgeW1"/></vehicle>
	<vehicle id="300" depart="1726"><route edges="EdgeN2 EdgeE1"/></vehicle>
	<vehicle id="301" depart="1731"><route edges="EdgeE2 EdgeW1"/></vehicle>
	<vehicle id="302" depart="1735"><route edges="EdgeN2 EdgeS1"/></vehicle>
	<vehicle id="303" depart="1745"><route edges="EdgeE2 EdgeS1"/></vehicle>
	<vehicle id="304" depart="1746"><route edges="EdgeE2 EdgeS1"/></vehicle>
	<vehicle id="305" depart="1748"><route edges="EdgeN2 EdgeS1"/></vehicle>
	<vehicle id="306" depart="1750"><route edges="EdgeW2 EdgeE1"/></vehicle>
	<vehicle id="307" depart="1751"><route edges="EdgeW2 EdgeS1"/></vehicle>
	<vehicle id="308" depart="1769"><route edges="EdgeN2 EdgeW1"/></vehicle>
	<vehicle id="309" depart="1771"><route edges="EdgeS2 EdgeE1"/></vehicle>
	<vehicle id="310" depart="1785"><route edges="EdgeE2 EdgeW1"/></vehicle>
	<vehicle id="311" depart="1785"><route edges="EdgeE2 EdgeW1"/></vehicle>
	<vehicle id="312" depart="1792"><route edges="EdgeW2 EdgeN1"/></vehicle>
	<vehicle id="313" depart="1800"><route edges="EdgeN2 EdgeE1"/></vehicle>
	<vehicle id="314" depart="1805"><route edges="EdgeN2 EdgeW1"/></vehicle>
	<vehicle id="315" depart="1811"><route edges="EdgeS2 EdgeN1"/></vehicle>
	<vehicle id="316" depart="1824"><route edges="EdgeE2 EdgeN1"/></vehicle>
	<vehicle id="317" depart="1826"><route edges="EdgeW2 EdgeN1"/></vehicle>
	<vehicle id="318" depart="1833"><route edges="EdgeS2 EdgeE1"/></vehicle>
	<vehicle id="319" depart="1834"><route edges="EdgeW2 EdgeS1"/></vehicle>
	<vehicle id="320" depart="1837"><route edges="EdgeS2 EdgeN1"/></vehicle>
	<vehicle id="321" depart="1841"><route edges="EdgeN2 EdgeE1"/></vehicle>
	<vehicle id="322" depart="1847"><route edges="EdgeN2 EdgeS1"/></vehicle>
	<vehicle id="323" depart="1854"><route edges="EdgeS2 EdgeW1"/></vehicle>
	<vehicle id="324" depart="1864"><route edges="EdgeS2 EdgeN1"/></vehicle>
	<vehicle id="325" depart="1864"><route edges="EdgeW2 EdgeN1"/></vehicle>
	<vehicle id="326" depart="1868"><route edges="EdgeS2 EdgeE1"/></vehicle>
	<vehicle id="327" depart="1877"><route edges="EdgeW2 EdgeE1"/></vehicle>
	<vehicle id="328" depart="1878"><route edges="EdgeS2 EdgeE1"/></vehicle>
	<vehicle id="329" depart="1879"><route edges="EdgeW2 EdgeE1"/></vehicle>
	<vehicle id="330" depart="1880"><route edges="EdgeE2 EdgeN1"/></vehicle>
	<vehicle id="331" depart="1884"><route edges="EdgeS2 EdgeN1"/></vehicle>
	<vehicle id="332" depart="1898"><route edges="EdgeN2 EdgeW1"/></vehicle>
	<vehicle id="333" depart="1900"><route edges="EdgeN2 EdgeE1"/></vehicle>
	<vehicle id="334" depart="1904"><route edges="EdgeW2 EdgeS1"/></vehicle>
	<vehicle id="335" depart="1907"><route edges="EdgeE2 EdgeN1"/></vehicle>
	<vehicle id="336" depart="1909"><route edges="EdgeS2 EdgeE1"/></vehicle>
	<vehicle id="337" depart="1912"><route edges="EdgeE2 EdgeW1"/></vehicle>
	<vehicle id="338" depart="1916"><route edges="EdgeS2 EdgeN1"/></vehicle>
	<vehicle id="339" depart="1922"><route edges="EdgeS2 EdgeW1"/></vehicle>
	<vehicle id="340" depart="1926"><route edges="EdgeE2 EdgeN1"/></vehicle>
	<vehicle id="341" depart="1927"><route edges="EdgeE2 EdgeN1"/></vehicle>
	<vehicle id="342" depart="1928"><route edges="EdgeS2 EdgeW1"/></vehicle>
	<vehicle id="343" depart="1935"><route edges="EdgeS2 EdgeW1"/></vehicle>
	<vehicle id="344" depart="1938"><route edges="EdgeS2 EdgeN1"/></vehicle>
	<vehicle id="345" depart="1946"><route edges="EdgeN2 EdgeW1"/></vehicle>
	<vehicle id="346" depart="1959"><route edges="EdgeS2 EdgeW1"/></vehicle>
	<vehicle id="347" depart="1965"><route edges="EdgeE2 EdgeN1"/></vehicle>
	<vehicle id="348" depart="1970"><route edges="EdgeN2 EdgeE1"/></vehicle>
	<vehicle id="349" depart="1975"><route edges="EdgeE2 EdgeN1"/></vehicle>
	<vehicle id="350" depart="1989"><route edges="EdgeN2 EdgeW1"/></vehicle>
	<vehicle id="351" depart="1992"><route edges="EdgeW2 EdgeE1"/></vehicle>
	<vehicle id="352" depart="2000"><route edges="EdgeS2 EdgeW1"/></vehicle>
	<vehicle id="353" depart="2004"><route edges="EdgeW2 EdgeN1"/></vehicle>
	<vehicle id="354" depart="2006"><route edges="EdgeS2 EdgeE1"/></vehicle>
	<vehicle id="355" depart="2013"><route edges="EdgeE2 EdgeW1"/></vehicle>
	<vehicle id="356" depart="2019"><route edges="EdgeE2 EdgeW1"/></vehicle>
	<vehicle id="357" depart="2033"><route edges="EdgeS2 EdgeW1"/></vehicle>
	<vehicle id="358" depart="2035"><route edges="EdgeW2 EdgeE1"/></vehicle>
	<vehicle id="359" depart="2038"><route edges="EdgeW2 EdgeN1"/></vehicle>
	<vehicle id="360" depart="2040"><route edges="EdgeS2 EdgeN1"/></vehicle>
	<vehicle id="361" depart="2051"><route edges="EdgeN2 EdgeE1"/></vehicle>
	<vehicle id="362" depart="2056"><route edges="EdgeN2 EdgeE1"/></vehicle>
	<vehicle id="363" depart="2059"><route edges="EdgeE2 EdgeS1"/></vehicle>
	<vehicle id="364" depart="2059"><route edges="EdgeS2 EdgeW1"/></vehicle>
	<vehicle id="365" depart="2061"><route edges="EdgeS2 EdgeW1"/></vehicle>
	<vehicle id="366" depart="2062"><route edges="EdgeN2 EdgeE1"/></vehicle>
	<vehicle id="367" depart="2063"><route edges="EdgeN2 EdgeE1"/></vehicle>
	<vehicle id="368" depart="2066"><route edges="EdgeE2 EdgeW1"/></vehicle>
	<vehicle id="369" depart="2066"><route edges="EdgeN2 EdgeW1"/></vehicle>
	<vehicle id="370" depart="2072"><route edges="EdgeW2 EdgeN1"/></vehicle>
	<vehicle id="371" depart="2072"><route edges="EdgeE2 EdgeW1"/></vehicle>
	<vehicle id="372" depart="2082"><route edges="EdgeE2 EdgeS1"/></vehicle>
	<vehicle id="373" depart="2084"><route edges="EdgeW2 EdgeE1"/></vehicle>
	<vehicle id="374" depart="2085"><route edges="EdgeW2 EdgeN1"/></vehicle>
	<vehicle id="375" depart="2089"><route edges="EdgeS2 EdgeN1"/></vehicle>
	<vehicle id="376" depart="2098"><route edges="EdgeW2 EdgeS1"/></vehicle>
	<vehicle id="377" depart="2099"><route edges="EdgeN2 EdgeE1"/></vehicle>
	<vehicle id="378" depart="2100"><route edges="EdgeE2 EdgeN1"/></vehicle>
	<vehicle id="379" depart="2107"><route edges="EdgeS2 EdgeW1"/></vehicle>
	<vehicle id="380" depart="2113"><route edges="EdgeN2 EdgeE1"/></vehicle>
	<vehicle id="381" depart="2114"><route edges="EdgeS2 EdgeN1"/></vehicle>
	<vehicle id="382" depart="2133"><route edges="EdgeS2 EdgeE1"/></vehicle>
	<vehicle id="383" depart="2137"><route edges="EdgeW2 EdgeS1"/></vehicle>
	<vehicle id="384" depart="2140"><route edges="EdgeW2 EdgeN1"/></vehicle>
	<vehicle id="385" depart="2142"><route edges="EdgeN2 EdgeE1"/></vehicle>
	<vehicle id="386" depart="2142"><route edges="EdgeS2 EdgeW1"/></vehicle>
	<vehicle id="387" depart="2146"><route edges="EdgeN2 EdgeW1"/></vehicle>
	<vehicle id="388" depart="2148"><route edges="EdgeS2 EdgeW1"/></vehicle>
	<vehicle id="389" depart="2153"><route edges="EdgeS2 EdgeE1"/></vehicle>
	<vehicle id="390" depart="2157"><route edges="EdgeE2 EdgeW1"/></vehicle>
	<vehicle id="391" depart="2167"><route edges="EdgeN2 EdgeW1"/></vehicle>
	<vehicle id="392" depart="2179"><route edges="EdgeE2 EdgeS1"/></vehicle>
	<vehicle id="393" depart="2181"><route edges="EdgeN2 EdgeW1"/></vehicle>
	<vehicle id="394" depart="2181"><route edges="EdgeS2 EdgeN1"/></vehicle>
	<vehicle id="395" depart="2192"><route edges="EdgeE2 EdgeN1"/></vehicle>
	<vehicle id="396" depart="2193"><route edges="EdgeN2 EdgeE1"/></vehicle>
	<vehicle id="397" depart="2197"><route edges="EdgeW2 EdgeE1"/></vehicle>
	<vehicle id="398" depart="2200"><route edges="EdgeE2 EdgeN1"/></vehicle>
	<vehicle id="399" depart="2204"><route edges="EdgeN2 EdgeS1"/></vehicle>
	<vehicle id="400" depart="2204"><route edges="EdgeE2 EdgeW1"/></vehicle>
	<vehicle id="401" depart="2210"><route edges="EdgeS2 EdgeW1"/></vehicle>
	<vehicle id="402" depart="2215"><route edges="EdgeE2 EdgeN1"/></vehicle>
	<vehicle id="403" depart="2219"><route edges="EdgeE2 EdgeN1"/></vehicle>
	<vehicle id="404" depart="2224"><route edges="EdgeE2 EdgeW1"/></vehicle>
	<vehicle id="405" depart="2224"><route edges="EdgeE2 EdgeS1"/></vehicle>