<?xml version="1.0" encoding="UTF-8"?>
<routes xmlns:xsi="http://www.w3.org/2001/XMLSchema-instance" xsi:noNamespaceSchemaLocation="http://sumo.dlr.de/xsd/routes_file.xsd">
	<vehicle id="0" depart="7"><route edges="EdgeN2 EdgeS1"/></vehicle>
	<vehicle id="1" depart="15"><route edges="EdgeE2 EdgeS1"/></vehicle>
	<vehicle id="2" depart="53"><route edges="EdgeS2 EdgeW1"/></vehicle>
	<vehicle id="3" depart="56"><route edges="EdgeW2 EdgeN1"/></vehicle>
	<vehicle id="4" depart="69"><route edges="EdgeS2 EdgeN1"/></vehicle>
	<vehicle id="5" depart="80"><route edges="EdgeE2 EdgeW1"/></vehicle>
	<vehicle id="6" depart="82"><route edges="EdgeN2 EdgeW1"/></vehicle>
	<vehicle id="7" depart="84"><route edges="EdgeS2 EdgeW1"/></vehicle>
	<vehicle id="8" depart="88"><route edges="EdgeN2 EdgeS1"/></vehicle>
	<vehicle id="9" depart="89"><route edges="EdgeW2 EdgeN1"/></vehicle>
	<vehicle id="10" depart="92"><route edges="EdgeS2 EdgeW1"/></vehicle>
	<vehicle id="11" depart="94"><route edges="EdgeW2 EdgeS1"/></vehicle>
	<vehicle id="12" depart="103"><route edges="EdgeN2 EdgeE1"/></vehicle>
	<vehicle id="13" depart="107"><route edges="EdgeE2 EdgeS1"/></vehicle>
	<vehicle id="14" depart="112"><route edges="EdgeN2 EdgeE1"/></vehicle>
	<vehicle id="15" depart="121"><route edges="EdgeE2 EdgeS1"/></vehicle>
	<vehicle id="16" depart="129"><route edges="EdgeS2 EdgeW1"/></vehicle>
	<vehicle id="17" depart="129"><route edges="EdgeS2 EdgeE1"/></vehicle>
	<vehicle id="18" depart="134"><route edges="EdgeE2 EdgeW1"/></vehicle>
	<vehicle id="19" depart="138"><route edges="EdgeW2 EdgeN1"/></vehicle>
	<vehicle id="20" depart="145"><route edges="EdgeE2 EdgeW1"/></vehicle>
	<vehicle id="21" depart="155"><route edges="EdgeS2 EdgeW1"/></vehicle>
	<vehicle id="22" depart="169"><route edges="EdgeE2 EdgeN1"/></vehicle>
	<vehicle id="23" depart="176"><route edges="EdgeW2 EdgeE1"/></vehicle>
	<vehicle id="24" depart="177"><route edges="EdgeN2 EdgeS1"/></vehicle>
	<vehicle id="25" depart="187"><route edges="EdgeE2 EdgeW1"/></vehicle>
	<vehicle id="26" depart="193"><route edges="EdgeE2 EdgeS1"/></vehicle>
	<vehicle id="27" depart="196"><route edges="EdgeN2 EdgeS1"/></vehicle>
	<vehicle id="28" depart="208"><route edges="EdgeE2 EdgeW1"/></vehicle>
	<vehicle id="29" depart="209"><route edges="EdgeE2 EdgeW1"/></vehicle>
	<vehicle id="30" depart="210"><route edges="EdgeW2 EdgeS1"/></vehicle>
	<vehicle id="31" depart="222"><route edges="EdgeW2 EdgeS1"/></vehicle>
	<vehicle id="32" depart="226"><route edges="EdgeW2 EdgeE1"/></vehicle>
	<vehicle id="33" depart="242"><route edges="EdgeN2 EdgeE1"/></vehicle>
	<vehicle id="34" depart="247"><route edges="EdgeN2 EdgeS1"/></vehicle>
	<vehicle id="35" depart="267"><route edges="EdgeE2 EdgeN1"/></vehicle>
	<vehicle id="36" depart="275"><route edges="EdgeS2 EdgeN1"/></vehicle>
	<vehicle id="37" depart="278"><route edges="EdgeS2 EdgeN1"/></vehicle>
	<vehicle id="38" depart="284"><route edges="EdgeW2 EdgeN1"/></vehicle>
	<vehicle id="39" depart="284"><route edges="EdgeE2 EdgeN1"/></vehicle>
	<vehicle id="40" depart="314"><route edges="EdgeE2 EdgeN1"/></vehicle>
	<vehicle id="41" depart="319"><route edges="EdgeE2 EdgeN1"/></vehicle>
	<vehicle id="42" depart="349"><route edges="EdgeS2 EdgeW1"/></vehicle>
	<vehicle id="43" depart="351"><route edges="EdgeS2 EdgeN1"/></vehicle>
	<vehicle id="44" depart="355"><route edges="EdgeS2 EdgeE1"/></vehicle>
	<vehicle id="45" depart="364"><route edges="EdgeN2 EdgeE1"/></vehicle>
	<vehicle id="46" depart="382"><route edges="EdgeS2 EdgeE1"/></vehicle>
	<vehicle id="47" depart="407"><route edges="EdgeW2 EdgeN1"/></vehicle>
	<vehicle id="48" depart="436"><route edges="EdgeW2 EdgeE1"/></vehicle>
	<vehicle id="49" depart="449"><route edges="EdgeS2 EdgeN1"/></vehicle>
	<vehicle id="50" depart="450"><route edges="EdgeE2 EdgeN1"/></vehicle>
	<vehicle id="51" depart="462"><route edges="EdgeE2 EdgeN1"/></vehicle>
	<vehicle id="52" depart="466"><route edges="EdgeW2 EdgeS1"/></vehicle>
	<vehicle id="53" depart="467"><route edges="EdgeS2 EdgeW1"/></vehicle>
	<vehicle id="54" depart="480"><route edges="EdgeE2 EdgeN1"/></vehicle>
	<vehicle id="55" depart="494"><route edges="EdgeE2 EdgeW1"/></vehicle>
	<vehicle id="56" depart="499"><route edges="EdgeS2 EdgeE1"/></vehicle>
	<vehicle id="57" depart="508"><route edges="EdgeN2 EdgeW1"/></vehicle>
	<vehicle id="58" depart="516"><route edges="EdgeW2 EdgeS1"/></vehicle>
	<vehicle id="59" depart="517"><route edges="EdgeN2 EdgeE1"/></vehicle>
	<vehicle id="60" depart="521"><route edges="EdgeN2 EdgeW1"/></vehicle>
	<vehicle id="61" depart="524"><route edges="EdgeE2 EdgeS1"/></vehicle>
	<vehicle id="62" depart="525"><route edges="EdgeE2 EdgeS1"/></vehicle>
	<vehicle id="63" depart="528"><route edges="EdgeE2 EdgeW1"/></vehicle>
	<vehicle id="64" depart="532"><route edges="EdgeN2 EdgeS1"/></vehicle>
	<vehicle id="65" depart="546"><route edges="EdgeN2 EdgeW1"/></vehicle>
	<vehicle id="66" depart="549"><route edges="EdgeS2 EdgeE1"/></vehicle>
	<vehicle id="67" depart="550"><route edges="EdgeE2 EdgeW1"/></vehicle>
	<vehicle id="68" depart="554"><route edges="EdgeW2 EdgeS1"/></vehicle>
	<vehicle id="69" depart="601"><route edges="EdgeE2 EdgeN1"/></vehicle>
	<vehicle id="70" depart="605"><route edges="EdgeN2 EdgeE1"/></vehicle>
	<vehicle id="71" depart="608"><route edges="EdgeE2 EdgeW1"/></vehicle>
	<vehicle id="72" depart="623"><route edges="EdgeS2 EdgeW1"/></vehicle>
	<vehicle id="73" depart="623"><route edges="EdgeN2 EdgeS1"/></vehicle>
	<vehicle id="74" depart="632"><route edges="EdgeE2 EdgeN1"/></vehicle>
	<vehicle id="75" depart="636"><route edges="EdgeE2 EdgeS1"/></vehicle>
	<vehicle id="76" depart="636"><route edges="EdgeS2 EdgeE1"/></vehicle>
	<vehicle id="77" depart="640"><route edges="EdgeW2 EdgeN1"/></vehicle>
	<vehicle id="78" depart="645"><route edges="EdgeS2 EdgeE1"/></vehicle>
	<vehicle id="79" depart="648"><route edges="EdgeE2 EdgeW1"/></vehicle>
	<vehicle id="80" depart="648"><route edges="EdgeN2 EdgeW1"/></vehicle>
	<vehicle id="81" depart="652"><route edges="EdgeN2 EdgeW1"/></vehicle>
	<vehicle id="82" depart="654"><route edges="EdgeW2 EdgeS1"/></vehicle>
	<vehicle id="83" depart="656"><route edges="EdgeW2 EdgeS1"/></vehicle>
	<vehicle id="84" depart="659"><route edges="EdgeE2 EdgeN1"/></vehicle>
	<vehicle id="85" depart="666"><route edges="EdgeN2 EdgeE1"/></vehicle>
	<vehicle id="86" depart="666"><route edges="EdgeS2 EdgeW1"/></vehicle>
	<vehicle id="87" depart="668"><route edges="EdgeW2 EdgeN1"/></vehicle>
	<vehicle id="88" depart="670"><route edges="EdgeN2 EdgeW1"/></vehicle>
	<vehicle id="89" depart="670"><route edges="EdgeW2 EdgeS1"/></vehicle>
	<vehicle id="90" depart="676"><route edges="EdgeN2 EdgeE1"/></vehicle>
	<vehicle id="91" depart="677"><route edges="EdgeW2 EdgeE1"/></vehicle>
	<vehicle id="92" depart="677"><route edges="EdgeS2 EdgeW1"/></vehicle>
	<vehicle id="93" depart="682"><route edges="EdgeE2 EdgeW1"/></vehicle>
	<vehicle id="94" depart="683"><route edges="EdgeN2 EdgeW1"/></vehicle>
	<vehicle id="95" depart="685"><route edges="EdgeE2 EdgeS1"/></vehicle>
	<vehicle id="96" depart="687"><route edges="EdgeW2 EdgeE1"/></vehicle>
	<vehicle id="97" depart="690"><route edges="EdgeW2 EdgeN1"/></vehicle>
	<vehicle id="98" depart="690"><route edges="EdgeE2 EdgeW1"/></vehicle>
	<vehicle id="99" depart="699"><route edges="EdgeN2 EdgeW1"/></vehicle>
	<vehicle id="100" depart="708"><route edges="EdgeW2 EdgeS1"/></vehicle>
	<vehicle id="101" depart="713"><route edges="EdgeS2 EdgeW1"/></vehicle>
	<vehicle id="102" depart="725"><route edges="EdgeE2 EdgeS1"/></vehicle>
	<vehicle id="103" depart="725"><route edges="EdgeE2 EdgeN1"/></vehicle>
	<vehicle id="104" depart="726"><route edges="EdgeS2 EdgeW1"/></vehicle>
	<vehicle id="105" depart="738"><route edges="EdgeE2 EdgeW1"/></vehicle>
	<vehicle id="106" depart="742"><route edges="EdgeS2 EdgeN1"/></vehicle>
	<vehicle id="107" depart="744"><route edges="EdgeE2 EdgeW1"/></vehicle>
	<vehicle id="108" depart="745"><route edges="EdgeE2 EdgeN1"/></vehicle>
	<vehicle id="109" depart="751"><route edges="EdgeE2 EdgeW1"/></vehicle>
	<vehicle id="110" depart="752"><route edges="EdgeN2 EdgeS1"/></vehicle>
	<vehicle id="111" depart="756"><route edges="EdgeE2 EdgeS1"/></vehicle>
	<vehicle id="112" depart="757"><route edges="EdgeS2 EdgeE1"/></vehicle>
	<vehicle id="113" depart="781"><route edges="EdgeE2 EdgeS1"/></vehicle>
	<vehicle id="114" depart="794"><route edges="EdgeN2 EdgeS1"/></vehicle>
	<vehicle id="115" depart="798"><route edges="EdgeW2 EdgeN1"/></vehicle>
	<vehicle id="116" depart="802"><route edges="EdgeW2 EdgeS1"/></vehicle>
	<vehicle id="117" depart="808"><route edges="EdgeE2 EdgeN1"/></vehicle>
	<vehicle id="118" depart="815"><route edges="EdgeW2 EdgeN1"/></vehicle>
	<vehicle id="119" depart="822"><route edges="EdgeS2 EdgeN1"/></vehicle>
	<vehicle id="120" depart="824"><route edges="EdgeE2 EdgeW1"/></vehicle>
	<vehicle id="121" depart="827"><route edges="EdgeS2 EdgeN1"/></vehicle>
	<vehicle id="122" depart="829"><route edges="EdgeW2 EdgeE1"/></vehicle>
	<vehicle id="123" depart="832"><route edges="EdgeN2 EdgeW1"/></vehicle>
	<vehicle id="124" depart="832"><route edges="EdgeN2 EdgeW1"/></vehicle>
	<vehicle id="125" depart="861"><route edges="EdgeN2 EdgeW1"/></vehicle>
	<vehicle id="126" depart="862"><route edges="EdgeS2 EdgeN1"/></vehicle>
	<vehicle id="127" depart="864"><route edges="EdgeE2 EdgeN1"/></vehicle>
	<vehicle id="128" depart="870"><route edges="EdgeN2 EdgeE1"/></vehicle>
	<vehicle id="129" depart="872"><route edges="EdgeW2 EdgeN1"/></vehicle>
	<vehicle id="130" depart="874"><route edges="EdgeS2 EdgeW1"/></vehicle>
	<vehicle id="131" depart="877"><route edges="EdgeE2 EdgeS1"/></vehicle>
	<vehicle id="132" depart="880"><route edges="EdgeW2 EdgeN1"/></vehicle>
	<vehicle id="133" depart="894"><route edges="EdgeS2 EdgeN1"/></vehicle>
	<vehicle id="134" depart="899"><route edges="EdgeS2 EdgeE1"/></vehicle>
	<vehicle id="135" depart="906"><route edges="EdgeW2 EdgeN1"/></vehicle>
	<vehicle id="136" depart="912"><route edges="EdgeE2 EdgeW1"/></vehicle>
	<vehicle id="137" depart="913"><route edges="EdgeW2 EdgeN1"/></vehicle>
	<vehicle id="138" depart="924"><route edges="EdgeS2 EdgeW1"/></vehicle>
	<vehicle id="139" depart="932"><route edges="EdgeN2 EdgeE1"/></vehicle>
	<vehicle id="140" depart="943"><route edges="EdgeE2 EdgeW1"/></vehicle>
	<vehicle id="141" depart="947"><route edges="EdgeE2 EdgeS1"/></vehicle>
	<vehicle id="142" depart="949"><route edges="EdgeN2 EdgeS1"/></vehicle>
	<vehicle id="143" depart="972"><route edges="EdgeW2 EdgeE1"/></vehicle>
	<vehicle id="144" depart="977"><route edges="EdgeW2 EdgeE1"/></vehicle>
	<vehicle id="145" depart="977"><route edges="EdgeS2 EdgeW1"/></vehicle>
	<vehicle id="146" depart="980"><route edges="EdgeS2 EdgeN1"/></vehicle>
	<vehicle id="147" depart="984"><route edges="EdgeS2 EdgeW1"/></vehicle>
	<vehicle id="148" depart="986"><route edges="EdgeW2 EdgeS1"/></vehicle>
	<vehicle id="149" depart="987"><route edges="EdgeN2 EdgeE1"/></vehicle>
	<vehicle id="150" depart="997"><route edges="EdgeS2 EdgeE1"/></vehicle>
	<vehicle id="151" depart="998"><route edges="EdgeE2 EdgeS1"/></vehicle>
	<vehicle id="152" depart="1001"><route edges="EdgeE2 EdgeW1"/></vehicle>
	<vehicle id="153" depart="1005"><route edges="EdgeE2 EdgeW1"/></vehicle>
	<vehicle id="154" depart="1017"><route edges="EdgeS2 EdgeW1"/></vehicle>
	<vehicle id="155" depart="1026"><route edges="EdgeE2 EdgeW1"/></vehicle>
	<vehicle id="156" depart="1027"><route edges="EdgeE2 EdgeS1"/></vehicle>
	<vehicle id="157" depart="1027"><route edges="EdgeS2 EdgeW1"/></vehicle>
	<vehicle id="158" depart="1031"><route edges="EdgeW2 EdgeS1"/></vehicle>
	<vehicle id="159" depart="1037"><route edges="EdgeE2 EdgeW1"/></vehicle>
	<vehicle id="160" depart="1039"><route edges="EdgeE2 EdgeS1"/></vehicle>
	<vehicle id="161" depart="1040"><route edges="EdgeN2 EdgeW1"/></vehicle>
	<vehicle id="162" depart="1054"><route edges="EdgeS2 EdgeE1"/></vehicle>
	<vehicle id="163" depart="1056"><route edges="EdgeN2 EdgeW1"/></vehicle>
	<vehicle id="164" depart="1065"><route edges="EdgeN2 EdgeS1"/></vehicle>
	<vehicle id="165" depart="1070"><route edges="EdgeE2 EdgeW1"/></vehicle>
	<vehicle id="166" depart="1071"><route edges="EdgeS2 EdgeE1"/></vehicle>
	<vehicle id="167" depart="1093"><route edges="EdgeS2 EdgeE1"/></vehicle>
	<vehicle id="168" depart="1096"><route edges="EdgeW2 EdgeE1"/></vehicle>
	<vehicle id="169" depart="1114"><route edges="EdgeN2 EdgeW1"/></vehicle>
	<vehicle id="170" depart="1123"><route edges="EdgeW2 EdgeS1"/></vehicle>
	<vehicle id="171" depart="1134"><route edges="EdgeN2 EdgeW1"/></vehicle>
	<vehicle id="172" depart="1139"><route edges="EdgeN2 EdgeS1"/></vehicle>
	<vehicle id="173" depart="1144"><route edges="EdgeS2 EdgeE1"/></vehicle>
	<vehicle id="174" depart="1144"><route edges="EdgeN2 EdgeE1"/></vehicle>
	<vehicle id="175" depart="1152"><route edges="EdgeW2 EdgeS1"/></vehicle>
	<vehicle id="176" depart="1153"><route edges="EdgeW2 EdgeN1"/></vehicle>
	<vehicle id="177" depart="1155"><route edges="EdgeE2 EdgeW1"/></vehicle>
	<vehicle id="178" depart="1170"><route edges="EdgeN2 EdgeS1"/></vehicle>
	<vehicle id="179" depart="1171"><route edges="EdgeS2 EdgeN1"/></vehicle>
	<vehicle id="180" depart="1176"><route edges="EdgeN2 EdgeE1"/></vehicle>
	<vehicle id="181" depart="1179"><route edges="EdgeE2 EdgeW1"/></vehicle>
	<vehicle id="182" depart="1182"><route edges="EdgeW2 EdgeN1"/></vehicle>
	<vehicle id="183" depart="1188"><route edges="EdgeS2 EdgeW1"/></vehicle>
	<vehicle id="184" depart="1192"><route edges="EdgeN2 EdgeS1"/></vehicle>
	<vehicle id="185" depart="1196"><route edges="EdgeW2 EdgeS1"/></vehicle>
	<vehicle id="186" depart="1201"><route edges="EdgeW2 EdgeS1"/></vehicle>
	<vehicle id="187" depart="1203"><route edges="EdgeE2 EdgeN1"/></vehicle>
	<vehicle id="188" depart="1203"><route edges="EdgeS2 EdgeE1"/></vehicle>
	<vehicle id="189" depart="1206"><route edges="EdgeN2 EdgeE1"/></vehicle>
	<vehicle id="190" depart="1212"><route edges="EdgeW2 EdgeE1"/></vehicle>
	<vehicle id="191" depart="1221"><route edges="EdgeN2 EdgeW1"/></vehicle>
	<vehicle id="192" depart="1223"><route edges="EdgeW2 EdgeE1"/></vehicle>
	<vehicle id="193" depart="1223"><route edges="EdgeS2 EdgeN1"/></vehicle>
	<vehicle id="194" depart="1227"><route edges="EdgeE2 EdgeN1"/></vehicle>
	<vehicle id="195" depart="1232"><route edges="EdgeW2 EdgeE1"/></vehicle>
	<vehicle id="196" depart="1234"><route edges="EdgeE2 EdgeN1"/></vehicle>
	<vehicle id="197" depart="1243"><route edges="EdgeN2 EdgeS1"/></vehicle>
	<vehicle id="198" depart="1244"><route edges="EdgeN2 EdgeW1"/></vehicle>
	<vehicle id="199" depart="1245"><route edges="EdgeE2 EdgeN1"/></vehicle>
	<vehicle id="200" depart="1246"><route edges="EdgeW2 EdgeS1"/></vehicle>
	<vehicle id="201" depart="1251"><route edges="EdgeW2 EdgeS1"/></vehicle>
	<vehicle id="202" depart="1258"><route edges="EdgeE2 EdgeW1"/></vehicle>
	<vehicle id="203" depart="1273"><route edges="EdgeE2 EdgeS1"/></vehicle>
	<vehicle id="204" depart="1278"><route edges="EdgeN2 EdgeE1"/></vehicle>
	<vehicle id="205" depart="1279"><route edges="EdgeS2 EdgeN1"/></vehicle>
	<vehicle id="206" depart="1285"><route edges="EdgeW2 EdgeE1"/></vehicle>
	<vehicle id="207" depart="1290"><route edges="EdgeN2 EdgeS1"/></vehicle>
	<vehicle id="208" depart="1296"><route edges="EdgeS2 EdgeW1"/></vehicle>
	<vehicle id="209" depart="1300"><route edges="EdgeE2 EdgeW1"/></vehicle>
	<vehicle id="210" depart="1301"><route edges="EdgeW2 EdgeE1"/></vehicle>
	<vehicle id="211" depart="1302"><route edges="EdgeW2 EdgeE1"/></vehicle>
	<vehicle id="212" depart="1304"><route edges="EdgeE2 EdgeS1"/></vehicle>
	<vehicle id="213" depart="1304"><route edges="EdgeE2 EdgeN1"/></vehicle>
	<vehicle id="214" depart="1304"><route edges="EdgeW2 EdgeE1"/></vehicle>
	<vehicle id="215" depart="1309"><route edges="EdgeW2 EdgeE1"/></vehicle>
	<vehicle id="216" depart="1317"><route edges="EdgeN2 EdgeW1"/></vehicle>
	<vehicle id="217" depart="1318"><route edges="EdgeN2 EdgeE1"/></vehicle>
	<vehicle id="218" depart="1322"><route edges="EdgeE2 EdgeN1"/></vehicle>
	<vehicle id="219" depart="1328"><route edges="EdgeW2 EdgeN1"/></vehicle>
	<vehicle id="220" depart="1329"><route edges="EdgeE2 EdgeN1"/></vehicle>
	<vehicle id="221" depart="1331"><route edges="EdgeW2 EdgeE1"/></vehicle>
	<vehicle id="222" depart="1335"><route edges="EdgeN2 EdgeS1"/></vehicle>
	<vehicle id="223" depart="1339"><route edges="EdgeN2 EdgeW1"/></vehicle>
	<vehicle id="224" depart="1343"><route edges="EdgeW2 EdgeS1"/></vehicle>
	<vehicle id="225" depart="1350"><route edges="EdgeE2 EdgeN1"/></vehicle>
	<vehicle id="226" depart="1359"><route edges="EdgeE2 EdgeW1"/></vehicle>
	<vehicle id="227" depart="1361"><route edges="EdgeS2 EdgeW1"/></vehicle>
	<vehicle id="228" depart="1366"><route edges="EdgeS2 EdgeW1"/></vehicle>
	<vehicle id="229" depart="1370"><route edges="EdgeN2 EdgeW1"/></vehicle>
	<vehicle id="230" depart="1374"><route edges="EdgeE2 EdgeW1"/></vehicle>
	<vehicle id="231" depart="1374"><route edges="EdgeN2 EdgeE1"/></vehicle>
	<vehicle id="232" depart="1378"><route edges="EdgeE2 EdgeW1"/></vehicle>
	<vehicle id="233" depart="1387"><route edges="EdgeS2 EdgeN1"/></vehicle>
	<vehicle id="234" depart="1397"><route edges="EdgeN2 EdgeW1"/></vehicle>
	<vehicle id="235" depart="1398"><route edges="EdgeS2 EdgeN1"/></vehicle>
	<vehicle id="236" depart="1401"><route edges="EdgeW2 EdgeN1"/></vehicle>
	<vehicle id="237" depart="1403"><route edges="EdgeN2 EdgeS1"/></vehicle>
	<vehicle id="238" depart="1407"><route edges="EdgeW2 EdgeN1"/></vehicle>
	<vehicle id="239" depart="1416"><route edges="EdgeS2 EdgeW1"/></vehicle>
	<vehicle id="240" depart="1420"><route edges="EdgeN2 EdgeW1"/></vehicle>
	<vehicle id="241" depart="1421"><route edges="EdgeW2 EdgeE1"/></vehicle>
	<vehicle id="242" depart="1433"><route edges="EdgeN2 EdgeE1"/></vehicle>
	<vehicle id="243" depart="1434"><route edges="EdgeN2 EdgeE1"/></vehicle>
	<vehicle id="244" depart="1443"><route edges="EdgeE2 EdgeW1"/></vehicle>
	<vehicle id="245" depart="1444"><route edges="EdgeW2 EdgeE1"/></vehicle>
	<vehicle id="246" depart="1446"><route edges="EdgeN2 EdgeW1"/></vehicle>
	<vehicle id="247" depart="1446"><route edges="EdgeE2 EdgeS1"/></vehicle>
	<vehicle id="248" depart="1451"><route edges="EdgeW2 EdgeE1"/></vehicle>
	<vehicle id="249" depart="1457"><route edges="EdgeW2 EdgeE1"/></vehicle>
	<vehicle id="250" depart="1468"><route edges="EdgeE2 EdgeN1"/></vehicle>
	<vehicle id="251" depart="1469"><route edges="EdgeS2 EdgeN1"/></vehicle>
	<vehicle id="252" depart="1475"><route edges="EdgeW2 EdgeN1"/></vehicle>
	<vehicle id="253" depart="1477"><route edges="EdgeS2 EdgeN1"/></vehicle>
	<vehicle id="254" depart="1500"><route edges="EdgeN2 EdgeW1"/></vehicle>
	<vehicle id="255" depart="1509"><route edges="EdgeE2 EdgeN1"/></vehicle>
	<vehicle id="256" depart="1525"><route edges="EdgeE2 EdgeW1"/></vehicle>
	<vehicle id="257" depart="1528"><route edges="EdgeS2 EdgeN1"/></vehicle>
	<vehicle id="258" depart="1528"><route edges="EdgeN2 EdgeS1"/></vehicle>
	<vehicle id="259" depart="1529"><route edges="EdgeE2 EdgeW1"/></vehicle>
	<vehicle id="260" depart="1538"><route edges="EdgeN2 EdgeS1"/></vehicle>
	<vehicle id="261" depart="1538"><route edges="EdgeW2 EdgeS1"/></vehicle>
	<vehicle id="262" depart="1538"><route edges="EdgeS2 EdgeN1"/></vehicle>
	<vehicle id="263" depart="1543"><route edges="EdgeN2 EdgeE1"/></vehicle>
	<vehicle id="264" depart="1546"><route edges="EdgeE2 EdgeN1"/></vehicle>
	<vehicle id="265" depart="1548"><route edges="EdgeW2 EdgeS1"/></vehicle>
	<vehicle id="266" depart="1568"><route edges="EdgeW2 EdgeE1"/></vehicle>
	<vehicle id="267" depart="1573"><route edges="EdgeS2 EdgeE1"/></vehicle>
	<vehicle id="268" depart="1579"><route edges="EdgeS2 EdgeE1"/></vehicle>
	<vehicle id="269" depart="1580"><route edges="EdgeN2 EdgeE1"/></vehicle>
	<vehicle id="270" depart="1583"><route edges="EdgeE2 EdgeN1"/></vehicle>
	<vehicle id="271" depart="1587"><route edges="EdgeS2 EdgeN1"/></vehicle>
	<vehicle id="272" depart="1588"><route edges="EdgeS2 EdgeN1"/></vehicle>
	<vehicle id="273" depart="1591"><route edges="EdgeE2 EdgeS1"/></vehicle>
	<vehicle id="274" depart="1593"><route edges="EdgeS2 EdgeW1"/></vehicle>
	<vehicle id="275" depart="1601"><route edges="EdgeS2 EdgeN1"/></vehicle>
	<vehicle id="276" depart="1602"><route edges="EdgeE2 EdgeN1"/></vehicle>
	<vehicle id="277" depart="1607"><route edges="EdgeS2 EdgeW1"/></vehicle>
	<vehicle id="278" depart="1614"><route edges="EdgeE2 EdgeS1"/></vehicle>
	<vehicle id="279" depart="1620"><route edges="EdgeE2 EdgeS1"/></vehicle>
	<vehicle id="280" depart="1622"><route edges="EdgeN2 EdgeW1"/></vehicle>
	<vehicle id="281" depart="1632"><route edges="EdgeS2 EdgeE1"/></vehicle>
	<vehicle id="282" depart="1634"><route edges="EdgeE2 EdgeS1"/></vehicle>
	<vehicle id="283" depart="1636"><route edges="EdgeE2 EdgeN1"/></vehicle>
	<vehicle id="284" depart="1649"><route edges="EdgeW2 EdgeE1"/></vehicle>
	<vehicle id="285" depart="1649"><route edges="EdgeS2 EdgeE1"/></vehicle>
	<vehicle id="286" depart="1650"><route edges="EdgeE2 EdgeS1"/></vehicle>
	<vehicle id="287" depart="1652"><route edges="EdgeE2 EdgeW1"/></vehicle>
	<vehicle id="288" depart="1652"><route edges="EdgeS2 EdgeW1"/></vehicle>
	<vehicle id="289" depart="1669"><route edges="EdgeN2 EdgeE1"/></vehicle>
	<vehicle id="290" depart="1683"><route edges="EdgeE2 EdgeW1"/></vehicle>
	<vehicle id="291" depart="1686"><route edges="EdgeW2 EdgeE1"/></vehicle>
	<vehicle id="292" depart="1688"><route edges="EdgeS2 EdgeW1"/></vehicle>
	<vehicle id="293" depart="1689"><route edges="EdgeE2 EdgeN1"/></vehicle>
	<vehicle id="294" depart="1693"><route edges="EdgeN2 EdgeW1"/></vehicle>
	<vehicle id="295" depart="1705"><route edges="EdgeE2 EdgeS1"/></vehicle>
	<vehicle id="296" depart="1706"><route edges="EdgeS2 EdgeW1"/></vehicle>
	<vehicle id="297" depart="1714"><route edges="EdgeN2 EdgeE1"/></vehicle>
	<vehicle id="298" depart="1719"><route edges="EdgeS2 EdgeW1"/></vehicle>
	<vehicle id="299" depart="1722"><route edges="EdgeW2 EdgeE1"/></vehicle>
	<vehicle id="300" depart="1725"><route edges="EdgeS2 EdgeE1"/></vehicle>
	<vehicle id="301" depart="1726"><route edges="EdgeN2 EdgeS1"/></vehicle>
	<vehicle id="302" depart="1729"><route edges="EdgeS2 EdgeN1"/></vehicle>
	<vehicle id="303" depart="1736"><route edges="EdgeS2 EdgeN1"/></vehicle>
	<vehicle id="304" depart="1736"><route edges="EdgeS2 EdgeE1"/></vehicle>
	<vehicle id="305" depart="1737"><route edges="EdgeE2 EdgeS1"/></vehicle>
	<vehicle id="306" depart="1742"><route edges="EdgeE2 EdgeS1"/></vehicle>
	<vehicle id="307" depart="1744"><route edges="EdgeN2 EdgeE1"/></vehicle>
	<vehicle id="308" depart="1747"><route edges="EdgeN2 EdgeW1"/></vehicle>
	<vehicle id="309" depart="1747"><route edges="EdgeS2 EdgeN1"/></vehicle>
	<vehicle id="310" depart="1751"><route edges="EdgeS2 EdgeW1"/></vehicle>
	<vehicle id="311" depart="1753"><route edges="EdgeS2 EdgeW1"/></vehicle>
	<vehicle id="312" depart="1754"><route edges="EdgeW2 EdgeE1"/></vehicle>
	<vehicle id="313" depart="1759"><route edges="EdgeE2 EdgeN1"/></vehicle>
	<vehicle id="314" depart="1767"><route edges="EdgeS2 EdgeN1"/></vehicle>
	<vehicle id="315" depart="1768"><route edges="EdgeW2 EdgeE1"/></vehicle>
	<vehicle id="316" depart="1773"><route edges="EdgeN2 EdgeE1"/></vehicle>
	<vehicle id="317" depart="1780"><route edges="EdgeW2 EdgeN1"/></vehicle>
	<vehicle id="318" depart="1803"><route edges="EdgeW2 EdgeN1"/></vehicle>
	<vehicle id="319" depart="1804"><route edges="EdgeE2 EdgeW1"/></vehicle>
	<vehicle id="320" depart="1805"><route edges="EdgeE2 EdgeW1"/></vehicle>
	<vehicle id="321" depart="1805"><route edges="EdgeN2 EdgeS1"/></vehicle>
	<vehicle id="322" depart="1806"><route edges="EdgeN2 EdgeS1"/></vehicle>
	<vehicle id="323" depart="1806"><route edges="EdgeN2 EdgeE1"/></vehicle>
	<vehicle id="324" depart="1808"><route edges="EdgeW2 EdgeS1"/></vehicle>
	<vehicle id="325" depart="1813"><route edges="EdgeE2 EdgeS1"/></vehicle>
	<vehicle id="326" depart="1813"><route edges="EdgeW2 EdgeS1"/></vehicle>
	<vehicle id="327" depart="1815"><route edges="EdgeS2 EdgeN1"/></vehicle>
	<vehicle id="328" depart="1826"><route edges="EdgeW2 EdgeS1"/></vehicle>
	<vehicle id="329" depart="1830"><route edges="EdgeE2 EdgeN1"/></vehicle>
	<vehicle id="330" depart="1835"><route edges="EdgeW2 EdgeS1"/></vehicle>
	<vehicle id="331" depart="1856"><route edges="EdgeE2 EdgeN1"/></vehicle>
	<vehicle id="332" depart="1858"><route edges="EdgeN2 EdgeS1"/></vehicle>
	<vehicle id="333" depart="1859"><route edges="EdgeN2 EdgeW1"/></vehicle>
	<vehicle id="334" depart="1872"><route edges="EdgeE2 EdgeN1"/></vehicle>
	<vehicle id="335" depart="1874"><route edges="EdgeS2 EdgeW1"/></vehicle>
	<vehicle id="336" depart="1878"><route edges="EdgeW2 EdgeS1"/></vehicle>
	<vehicle id="337" depart="1886"><route edges="EdgeE2 EdgeN1"/></vehicle>
	<vehicle id="338" depart="1894"><route edges="EdgeN2 EdgeS1"/></vehicle>
	<vehicle id="339" depart="1896"><route edges="EdgeS2 EdgeE1"/></vehicle>
	<vehicle id="340" depart="1897"><route edges="EdgeE2 EdgeN1"/></vehicle>
	<vehicle id="341" depart="1900"><route edges="EdgeS2 EdgeE1"/></vehicle>
	<vehicle id="342" depart="1903"><route edges="EdgeS2 EdgeN1"/></vehicle>
	<vehicle id="343" depart="1904"><route edges="EdgeW2 EdgeN1"/></vehicle>
	<vehicle id="344" depart="1912"><route edges="EdgeE2 EdgeN1"/></vehicle>
	<vehicle id="345" depart="1913"><route edges="EdgeS2 EdgeW1"/></vehicle>
	<vehicle id="346" depart="1913"><route edges="EdgeS2 EdgeN1"/></vehicle>
	<vehicle id="347" depart="1917"><route edges="EdgeE2 EdgeW1"/></vehicle>
	<vehicle id="348" depart="1917"><route edges="EdgeE2 EdgeS1"/></vehicle>
	<vehicle id="349" depart="1920"><route edges="EdgeE2 EdgeW1"/></vehicle>
	<vehicle id="350" depart="1923"><route edges="EdgeS2 EdgeN1"/></vehicle>
	<vehicle id="351" depart="1924"><route edges="EdgeE2 EdgeW1"/></vehicle>
	<vehicle id="352" depart="1933"><route edges="EdgeS2 EdgeN1"/></vehicle>
	<vehicle id="353" depart="1938"><route edges="EdgeS2 EdgeE1"/></vehicle>
	<vehicle id="354" depart="1941"><route edges="EdgeS2 EdgeW1"/></vehicle>
	<vehicle id="355" depart="1944"><route edges="EdgeW2 EdgeE1"/></vehicle>
	<vehicle id="356" depart="1945"><route edges="EdgeS2 EdgeE1"/></vehicle>
	<vehicle id="357" depart="1946"><route edges="EdgeS2 EdgeW1"/></vehicle>
	<vehicle id="358" depart="1950"><route edges="EdgeN2 EdgeS1"/></vehicle>
	<vehicle id="359" depart="1955"><route edges="EdgeE2 EdgeW1"/></vehicle>
	<vehicle id="360" depart="1961"><route edges="EdgeS2 EdgeE1"/></vehicle>
	<vehicle id="361" depart="1963"><route edges="EdgeW2 EdgeE1"/></vehicle>
	<vehicle id="362" depart="1963"><route edges="EdgeS2 EdgeE1"/></vehicle>
	<vehicle id="363" depart="1969"><route edges="EdgeN2 EdgeW1"/></vehicle>
	<vehicle id="364" depart="1977"><route edges="EdgeW2 EdgeE1"/></vehicle>
	<vehicle id="365" depart="1981"><route edges="EdgeN2 EdgeW1"/></vehicle>
	<vehicle id="366" depart="1981"><route edges="EdgeW2 EdgeN1"/></vehicle>
	<vehicle id="367" depart="1983"><route edges="EdgeN2 EdgeS1"/></vehicle>
	<vehicle id="368" depart="1987"><route edges="EdgeN2 EdgeE1"/></vehicle>
	<vehicle id="369" depart="1989"><route edges="EdgeW2 EdgeN1"/></vehicle>
	<vehicle id="370" depart="1990"><route edges="EdgeN2 EdgeS1"/></vehicle>
	<vehicle id="371" depart="1998"><route edges="EdgeN2 EdgeW1"/></vehicle>
	<vehicle id="372" depart="2000"><route edges="EdgeW2 EdgeN1"/></vehicle>
	<vehicle id="373" depart="2000"><route edges="EdgeN2 EdgeS1"/></vehicle>
	<vehicle id="374" depart="2002"><route edges="EdgeS2 EdgeW1"/></vehicle>
	<vehicle id="375" depart="2003"><route edges="EdgeW2 EdgeN1"/></vehicle>
	<vehicle id="376" depart="2010"><route edges="EdgeE2 EdgeS1"/></vehicle>
	<vehicle id="377" depart="2019"><route edges="EdgeN2 EdgeW1"/></vehicle>
	<vehicle id="378" depart="2021"><route edges="EdgeS2 EdgeN1"/></vehicle>
	<vehicle id="379" depart="2026"><route edges="EdgeE2 EdgeW1"/></vehicle>
	<vehicle id="380" depart="2031"><route edges="EdgeW2 EdgeN1"/></vehicle>
	<vehicle id="381" depart="2033"><route edges="EdgeN2 EdgeW1"/></vehicle>
	<vehicle id="382" depart="2035"><route edges="EdgeS2 EdgeE1"/></vehicle>
	<vehicle id="383" depart="2043"><route edges="EdgeW2 EdgeE1"/></vehicle>
	<vehicle id="384" depart="2053"><route edges="EdgeE2 EdgeS1"/></vehicle>
	<vehicle id="385" depart="2060"><route edges="EdgeS2 EdgeW1"/></vehicle>
	<vehicle id="386" depart="2061"><route edges="EdgeS2 EdgeN1"/></vehicle>
	<vehicle id="387" depart="2074"><route edges="EdgeW2 EdgeE1"/></vehicle>
	<vehicle id="388" depart="2078"><route edges="EdgeS2 EdgeN1"/></vehicle>
	<vehicle id="389" depart="2091"><route edges="EdgeW2 EdgeS1"/></vehicle>
	<vehicle id="390" depart="2095"><route edges="EdgeE2 EdgeS1"/></vehicle>
	<vehicle id="391" depart="2097"><route edges="EdgeW2 EdgeE1"/></vehicle>
	<vehicle id="392" depart="2106"><route edges="EdgeE2 EdgeS1"/></vehicle>
	<vehicle id="393" depart="2112"><route edges="EdgeW2 EdgeS1"/></vehicle>
	<vehicle id="394" depart="2112"><route edges="EdgeE2 EdgeW1"/></vehicle>
	<vehicle id="395" depart="2127"><route edges="EdgeS2 EdgeW1"/></vehicle>
	<vehicle id="396" depart="2130"><route edges="EdgeS2 EdgeE1"/></vehicle>
	<vehicle id="397" depart="2130"><route edges="EdgeW2 EdgeE1"/></vehicle>
	<vehicle id="398" depart="2132"><route edges="EdgeE2 EdgeS1"/></vehicle>
	<vehicle id="399" depart="2159"><route edges="EdgeE2 EdgeS1"/></vehicle>
	<vehicle id="400" depart="2166"><route edges="EdgeN2 EdgeS1"/></vehicle>
	<vehicle id="401" depart="2184"><route edges="EdgeW2 EdgeN1"/></vehicle>
	<vehicle id="402" depart="2185"><route edges="EdgeS2 EdgeE1"/></vehicle>
	<vehicle id="403" depart="2198"><route edges="EdgeE2 EdgeW1"/></vehicle>
	<vehicle id="404" depart="2207"><route edges="EdgeW2 EdgeN1"/></vehicle>
	<vehicle id="405" depart="2210"><route edges="EdgeN2 EdgeE1"/></vehicle>