<?xml version="1.0" encoding="UTF-8"?>

<!-- generated on 四  1/24 17:11:43 2019 by Eclipse SUMO netedit Version 1.0.1
<configuration xmlns:xsi="http://www.w3.org/2001/XMLSchema-instance" xsi:noNamespaceSchemaLocation="http://sumo.dlr.de/xsd/netconvertConfiguration.xsd">

    <input>
        <sumo-net-file value="/Users/eriti/Desktop/netedit/single/RL_single.net.xml"/>
    </input>

    <output>
        <output-file value="/Users/eriti/Desktop/netedit/single/RL_single.net.xml"/>
    </output>

    <processing>
        <offset.disable-normalization value="true"/>
        <lefthand value="false"/>
    </processing>

    <junctions>
        <no-turnarounds value="true"/>
        <junctions.corner-detail value="5"/>
        <junctions.limit-turn-speed value="5.5"/>
        <rectangular-lane-cut value="false"/>
    </junctions>

    <pedestrian>
        <walkingareas value="false"/>
    </pedestrian>

</configuration>
-->

<net version="1.0" junctionCornerDetail="5" limitTurnSpeed="5.50" xmlns:xsi="http://www.w3.org/2001/XMLSchema-instance" xsi:noNamespaceSchemaLocation="http://sumo.dlr.de/xsd/net_file.xsd">

    <location netOffset="0.00,0.00" convBoundary="-700.00,-600.00,700.00,800.00" origBoundary="-10000000000.00,-10000000000.00,10000000000.00,10000000000.00" projParameter="!"/>

    <edge id=":Intersection0_0" function="internal">
        <lane id=":Intersection0_0_0" index="0" speed="6.51" length="9.03" shape="-4.80,110.40 -5.15,107.95 -6.20,106.20 -7.95,105.15 -10.40,104.80"/>
    </edge>
    <edge id=":Intersection0_1" function="internal">
        <lane id=":Intersection0_1_0" index="0" speed="13.89" length="20.80" shape="-4.80,110.40 -4.80,89.60"/>
    </edge>
    <edge id=":Intersection0_2" function="internal">
        <lane id=":Intersection0_2_0" index="0" speed="9.26" length="19.36" shape="-1.60,110.40 -0.85,105.15 1.40,101.40 5.15,99.15 10.40,98.40"/>
    </edge>
    <edge id=":Intersection0_3" function="internal">
        <lane id=":Intersection0_3_0" index="0" speed="6.51" length="9.03" shape="10.40,104.80 7.95,105.15 6.20,106.20 5.15,107.95 4.80,110.40"/>
    </edge>
    <edge id=":Intersection0_4" function="internal">
        <lane id=":Intersection0_4_0" index="0" speed="13.89" length="20.80" shape="10.40,104.80 -10.40,104.80"/>
    </edge>
    <edge id=":Intersection0_5" function="internal">
        <lane id=":Intersection0_5_0" index="0" speed="9.26" length="19.35" shape="10.40,101.60 5.15,100.85 1.40,98.60 -0.85,94.85 -1.60,89.60"/>
    </edge>
    <edge id=":Intersection0_6" function="internal">
        <lane id=":Intersection0_6_0" index="0" speed="6.51" length="9.03" shape="4.80,89.60 5.15,92.05 6.20,93.80 7.95,94.85 10.40,95.20"/>
    </edge>
    <edge id=":Intersection0_7" function="internal">
        <lane id=":Intersection0_7_0" index="0" speed="13.89" length="20.80" shape="4.80,89.60 4.80,110.40"/>
    </edge>
    <edge id=":Intersection0_8" function="internal">
        <lane id=":Intersection0_8_0" index="0" speed="9.26" length="19.36" shape="1.60,89.60 0.85,94.85 -1.40,98.60 -5.15,100.85 -10.40,101.60"/>
    </edge>
    <edge id=":Intersection0_9" function="internal">
        <lane id=":Intersection0_9_0" index="0" speed="6.51" length="9.04" shape="-10.40,95.20 -7.95,94.85 -6.20,93.80 -5.15,92.05 -4.80,89.60"/>
    </edge>
    <edge id=":Intersection0_10" function="internal">
        <lane id=":Intersection0_10_0" index="0" speed="13.89" length="20.80" shape="-10.40,95.20 10.40,95.20"/>
    </edge>
    <edge id=":Intersection0_11" function="internal">
        <lane id=":Intersection0_11_0" index="0" speed="9.26" length="19.36" shape="-10.40,98.40 -5.15,99.15 -1.40,101.40 0.85,105.15 1.60,110.40"/>
    </edge>

    <edge id="EdgeE1" from="Intersection0" to="NodeE" priority="-1" length="700.00">
        <lane id="EdgeE1_0" index="0" speed="13.89" length="700.00" shape="10.40,95.20 700.00,95.20"/>
        <lane id="EdgeE1_1" index="1" speed="13.89" length="700.00" shape="10.40,98.40 700.00,98.40"/>
    </edge>
    <edge id="EdgeE2" from="NodeE" to="Intersection0" priority="-1" length="700.00">
        <lane id="EdgeE2_0" index="0" speed="13.89" length="700.00" shape="700.00,104.80 10.40,104.80"/>
        <lane id="EdgeE2_1" index="1" speed="13.89" length="700.00" shape="700.00,101.60 10.40,101.60"/>
    </edge>
    <edge id="EdgeN1" from="Intersection0" to="NodeN" priority="-1" length="700.00">
        <lane id="EdgeN1_0" index="0" speed="13.89" length="700.00" shape="4.80,110.40 4.80,800.00"/>
        <lane id="EdgeN1_1" index="1" speed="13.89" length="700.00" shape="1.60,110.40 1.60,800.00"/>
    </edge>
    <edge id="EdgeN2" from="NodeN" to="Intersection0" priority="-1" length="700.00">
        <lane id="EdgeN2_0" index="0" speed="13.89" length="700.00" shape="-4.80,800.00 -4.80,110.40"/>
        <lane id="EdgeN2_1" index="1" speed="13.89" length="700.00" shape="-1.60,800.00 -1.60,110.40"/>
    </edge>
    <edge id="EdgeS1" from="Intersection0" to="NodeS" priority="-1" length="700.00">
        <lane id="EdgeS1_0" index="0" speed="13.89" length="700.00" shape="-4.80,89.60 -4.80,-600.00"/>
        <lane id="EdgeS1_1" index="1" speed="13.89" length="700.00" shape="-1.60,89.60 -1.60,-600.00"/>
    </edge>
    <edge id="EdgeS2" from="NodeS" to="Intersection0" priority="-1" length="700.00">
        <lane id="EdgeS2_0" index="0" speed="13.89" length="700.00" shape="4.80,-600.00 4.80,89.60"/>
        <lane id="EdgeS2_1" index="1" speed="13.89" length="700.00" shape="1.60,-600.00 1.60,89.60"/>
    </edge>
    <edge id="EdgeW1" from="Intersection0" to="NodeW" priority="-1" length="700.00">
        <lane id="EdgeW1_0" index="0" speed="13.89" length="700.00" shape="-10.40,104.80 -700.00,105.09"/>
        <lane id="EdgeW1_1" index="1" speed="13.89" length="700.00" shape="-10.40,101.60 -700.00,101.89"/>
    </edge>
    <edge id="EdgeW2" from="NodeW" to="Intersection0" priority="-1" length="700.00">
        <lane id="EdgeW2_0" index="0" speed="13.89" length="700.00" shape="-700.00,95.49 -10.40,95.20"/>
        <lane id="EdgeW2_1" index="1" speed="13.89" length="700.00" shape="-700.00,98.69 -10.40,98.40"/>
    </edge>

    <tlLogic id="Intersection0" type="static" programID="a" offset="0">
        <phase duration="1"  state="uurrrruurrrr"/>
        <phase duration="25" state="GGrrrrGGrrrr"/>
        <phase duration="2"  state="yyrrrryyrrrr"/>
        <phase duration="1"  state="rrrrrrrrrrrr"/>
        <phase duration="1"  state="rrruurrrruur"/>
        <phase duration="25" state="rrrGGrrrrGGr"/>
        <phase duration="2"  state="rrryyrrrryyr"/>
        <phase duration="1"  state="rrrrrrrrrrrr"/>
        <phase duration="1"  state="rrurrrrrurrr"/>
        <phase duration="15" state="rrGrrrrrGrrr"/>
        <phase duration="2"  state="rryrrrrryrrr"/>
        <phase duration="1"  state="rrrrrrrrrrrr"/>
        <phase duration="1"  state="rrrrrurrrrru"/>
        <phase duration="15" state="rrrrrGrrrrrG"/>
        <phase duration="2"  state="rrrrryrrrrry"/>
        <phase duration="1"  state="rrrrrrrrrrrr"/>
    </tlLogic>

    <junction id="Intersection0" type="traffic_light" x="0.00" y="100.00" incLanes="EdgeN2_0 EdgeN2_1 EdgeE2_0 EdgeE2_1 EdgeS2_0 EdgeS2_1 EdgeW2_0 EdgeW2_1" intLanes=":Intersection0_0_0 :Intersection0_1_0 :Intersection0_2_0 :Intersection0_3_0 :Intersection0_4_0 :Intersection0_5_0 :Intersection0_6_0 :Intersection0_7_0 :Intersection0_8_0 :Intersection0_9_0 :Intersection0_10_0 :Intersection0_11_0" shape="-6.40,110.40 6.40,110.40 6.84,108.18 7.40,107.40 8.18,106.84 9.18,106.51 10.40,106.40 10.40,93.60 8.18,93.16 7.40,92.60 6.84,91.82 6.51,90.82 6.40,89.60 -6.40,89.60 -6.85,91.82 -7.40,92.60 -8.18,93.16 -9.18,93.49 -10.41,93.60 -10.40,106.40 -8.18,106.85 -7.40,107.40 -6.84,108.18 -6.51,109.18">
        <request index="0"  response="000000000000" foes="000100010000" cont="0"/>
        <request index="1"  response="000000000000" foes="111100110000" cont="0"/>
        <request index="2"  response="000011000000" foes="110011110000" cont="0"/>
        <request index="3"  response="000010000000" foes="100010000000" cont="0"/>
        <request index="4"  response="000110000111" foes="100110000111" cont="0"/>
        <request index="5"  response="011110000110" foes="011110000110" cont="0"/>
        <request index="6"  response="000000000000" foes="010000000100" cont="0"/>
        <request index="7"  response="000000000000" foes="110000111100" cont="0"/>
        <request index="8"  response="000000000011" foes="110000110011" cont="0"/>
        <request index="9"  response="000000000010" foes="000000100010" cont="0"/>
        <request index="10" response="000111000110" foes="000111100110" cont="0"/>
        <request index="11" response="000110011110" foes="000110011110" cont="0"/>
    </junction>
    <junction id="NodeE" type="dead_end" x="700.00" y="100.00" incLanes="EdgeE1_0 EdgeE1_1" intLanes="" shape="700.00,100.00 700.00,93.60 700.00,100.00"/>
    <junction id="NodeN" type="dead_end" x="0.00" y="800.00" incLanes="EdgeN1_0 EdgeN1_1" intLanes="" shape="0.00,800.00 6.40,800.00 0.00,800.00"/>
    <junction id="NodeS" type="dead_end" x="0.00" y="-600.00" incLanes="EdgeS1_0 EdgeS1_1" intLanes="" shape="0.00,-600.00 -6.40,-600.00 0.00,-600.00"/>
    <junction id="NodeW" type="dead_end" x="-700.00" y="100.29" incLanes="EdgeW1_0 EdgeW1_1" intLanes="" shape="-700.00,100.29 -700.00,106.69 -700.00,100.29"/>

    <connection from="EdgeE2" to="EdgeN1" fromLane="0" toLane="0" via=":Intersection0_3_0" tl="Intersection0" linkIndex="3" dir="r" state="o"/>
    <connection from="EdgeE2" to="EdgeW1" fromLane="0" toLane="0" via=":Intersection0_4_0" tl="Intersection0" linkIndex="4" dir="s" state="o"/>
    <connection from="EdgeE2" to="EdgeS1" fromLane="1" toLane="1" via=":Intersection0_5_0" tl="Intersection0" linkIndex="5" dir="l" state="o"/>
    <connection from="EdgeN2" to="EdgeW1" fromLane="0" toLane="0" via=":Intersection0_0_0" tl="Intersection0" linkIndex="0" dir="r" state="O"/>
    <connection from="EdgeN2" to="EdgeS1" fromLane="0" toLane="0" via=":Intersection0_1_0" tl="Intersection0" linkIndex="1" dir="s" state="O"/>
    <connection from="EdgeN2" to="EdgeE1" fromLane="1" toLane="1" via=":Intersection0_2_0" tl="Intersection0" linkIndex="2" dir="l" state="o"/>
    <connection from="EdgeS2" to="EdgeE1" fromLane="0" toLane="0" via=":Intersection0_6_0" tl="Intersection0" linkIndex="6" dir="r" state="O"/>
    <connection from="EdgeS2" to="EdgeN1" fromLane="0" toLane="0" via=":Intersection0_7_0" tl="Intersection0" linkIndex="7" dir="s" state="O"/>
    <connection from="EdgeS2" to="EdgeW1" fromLane="1" toLane="1" via=":Intersection0_8_0" tl="Intersection0" linkIndex="8" dir="l" state="o"/>
    <connection from="EdgeW2" to="EdgeS1" fromLane="0" toLane="0" via=":Intersection0_9_0" tl="Intersection0" linkIndex="9" dir="r" state="o"/>
    <connection from="EdgeW2" to="EdgeE1" fromLane="0" toLane="0" via=":Intersection0_10_0" tl="Intersection0" linkIndex="10" dir="s" state="o"/>
    <connection from="EdgeW2" to="EdgeN1" fromLane="1" toLane="1" via=":Intersection0_11_0" tl="Intersection0" linkIndex="11" dir="l" state="o"/>

    <connection from=":Intersection0_0" to="EdgeW1" fromLane="0" toLane="0" dir="r" state="M"/>
    <connection from=":Intersection0_1" to="EdgeS1" fromLane="0" toLane="0" dir="s" state="M"/>
    <connection from=":Intersection0_2" to="EdgeE1" fromLane="0" toLane="1" dir="l" state="M"/>
    <connection from=":Intersection0_3" to="EdgeN1" fromLane="0" toLane="0" dir="r" state="M"/>
    <connection from=":Intersection0_4" to="EdgeW1" fromLane="0" toLane="0" dir="s" state="M"/>
    <connection from=":Intersection0_5" to="EdgeS1" fromLane="0" toLane="1" dir="l" state="M"/>
    <connection from=":Intersection0_6" to="EdgeE1" fromLane="0" toLane="0" dir="r" state="M"/>
    <connection from=":Intersection0_7" to="EdgeN1" fromLane="0" toLane="0" dir="s" state="M"/>
    <connection from=":Intersection0_8" to="EdgeW1" fromLane="0" toLane="1" dir="l" state="M"/>
    <connection from=":Intersection0_9" to="EdgeS1" fromLane="0" toLane="0" dir="r" state="M"/>
    <connection from=":Intersection0_10" to="EdgeE1" fromLane="0" toLane="0" dir="s" state="M"/>
    <connection from=":Intersection0_11" to="EdgeN1" fromLane="0" toLane="1" dir="l" state="M"/>

</net>
